@<TRIPOS>MOLECULE
ZINC13807919
   27    27     0     0     0
SMALL
USER_CHARGES
4-fluoro-5-[(1R)-1-hydroxy-2-methylamino-ethyl]benzene-1,2-diol
@<TRIPOS>ATOM
      1 C1         -0.0178    1.4648    0.0101 C.3       1 <0>        -0.0437
      2 C2         -1.3620   -0.5491    0.0121 C.3       1 <0>        -0.0405
      3 C3         -1.3005   -2.0779    0.0033 C.3       1 <0>         0.1381
      4 H1         -0.7640   -2.4250    0.8864 H         1 <0>         0.1375
      5 C4         -2.6999   -2.6370    0.0137 C.ar      1 <0>        -0.1719
      6 C5         -3.3134   -2.9837   -1.1762 C.ar      1 <0>        -0.0893
      7 C6         -4.5995   -3.4977   -1.1687 C.ar      1 <0>         0.0846
      8 C7         -5.2729   -3.6647    0.0378 C.ar      1 <0>         0.1361
      9 C8         -4.6546   -3.3161    1.2273 C.ar      1 <0>        -0.1610
     10 C9         -3.3666   -2.8079    1.2145 C.ar      1 <0>         0.1250
     11 F1         -2.7618   -2.4733    2.3753 F         1 <0>        -0.1288
     12 O1         -6.5359   -4.1687    0.0488 O.3       1 <0>        -0.4788
     13 O2         -5.2034   -3.8393   -2.3388 O.3       1 <0>        -0.4802
     14 O3         -0.6194   -2.5204   -1.1724 O.3       1 <0>        -0.5437
     15 H2          1.0047    1.8421    0.0024 H         1 <0>         0.1285
     16 H3         -0.5450    1.8259   -0.8730 H         1 <0>         0.1231
     17 H4         -0.5280    1.8163    0.9069 H         1 <0>         0.1236
     18 H5         -1.8815   -0.2116    0.9089 H         1 <0>         0.1440
     19 H6         -1.8985   -0.2020   -0.8709 H         1 <0>         0.1391
     20 H7         -2.7894   -2.8539   -2.1116 H         1 <0>         0.1472
     21 H8         -5.1753   -3.4445    2.1647 H         1 <0>         0.1572
     22 H9         -6.5743   -5.1322    0.1213 H         1 <0>         0.4042
     23 H10        -5.0508   -4.7557   -2.6073 H         1 <0>         0.3995
     24 H11        -1.0420   -2.2471   -1.9981 H         1 <0>         0.3899
     25 N1          0.0110   -0.0100    0.0019 N.4       1 <0>        -0.5149
     26 H12         0.5120   -0.3437    0.8337 H         1 <0>         0.4368
     27 H13         0.4960   -0.3346   -0.8429 H         1 <0>         0.4385
@<TRIPOS>BOND
     1    1   15 1
     2    1   16 1
     3    1   17 1
     4    1   25 1
     5    2    3 1
     6    2   18 1
     7    2   19 1
     8    2   25 1
     9    3    4 1
    10    3    5 1
    11    3   14 1
    12    5   10 ar
    13    5    6 ar
    14    6    7 ar
    15    6   20 1
    16    7    8 ar
    17    7   13 1
    18    8    9 ar
    19    8   12 1
    20    9   10 ar
    21    9   21 1
    22   10   11 1
    23   12   22 1
    24   13   23 1
    25   14   24 1
    26   25   26 1
    27   25   27 1
@<TRIPOS>MOLECULE
ZINC37626653
   42    43     0     0     0
SMALL
USER_CHARGES

@<TRIPOS>ATOM
      1 C1         -0.0187    1.5258    0.0104 C.3       1 <0>        -0.1165
      2 C2          1.4167    2.0553   -0.0004 C.3       1 <0>        -0.1309
      3 C3          2.1567    1.5485    1.2391 C.3       1 <0>         0.1479
      4 H1          1.6465    1.9000    2.1359 H         1 <0>         0.0927
      5 C4          2.1775    0.0187    1.2307 C.3       1 <0>        -0.1201
      6 C5          0.7421   -0.5109    1.2415 C.3       1 <0>         0.1093
      7 H2          0.2319   -0.1594    2.1383 H         1 <0>         0.0588
      8 C6          0.0021   -0.0041    0.0020 C.3       1 <0>        -0.1562
      9 O1          0.7614   -1.9398    1.2337 O.3       1 <0>        -0.5678
     10 N1          3.5311    2.0556    1.2287 N.am      1 <0>        -0.7227
     11 C7          3.8019    3.2786    1.7260 C.2       1 <0>         0.5154
     12 O2          2.9078    3.9594    2.1821 O.2       1 <0>        -0.5284
     13 C8          5.2157    3.8003    1.7153 C.3       1 <0>        -0.1141
     14 C9          6.1110    2.8638    2.5291 C.3       1 <0>        -0.1110
     15 C10         7.5464    3.3934    2.5183 C.3       1 <0>        -0.1400
     16 C11         7.5783    4.7931    3.1352 C.3       1 <0>         0.0231
     17 C12         6.6830    5.7296    2.3213 C.3       1 <0>        -0.1418
     18 C13         5.2476    5.2000    2.3322 C.3       1 <0>        -0.0995
     19 N2          8.9564    5.3016    3.1247 N.4       1 <0>        -0.6367
     20 H3         -0.5289    1.8773    0.9072 H         1 <0>         0.0679
     21 H4         -0.5459    1.8868   -0.8726 H         1 <0>         0.0733
     22 H5          1.9269    1.7038   -0.8972 H         1 <0>         0.0668
     23 H6          1.4019    3.1452    0.0056 H         1 <0>         0.0703
     24 H7          2.6876   -0.3328    0.3339 H         1 <0>         0.0769
     25 H8          2.7046   -0.3424    2.1137 H         1 <0>         0.0760
     26 H9         -1.0205   -0.3814    0.0098 H         1 <0>         0.0711
     27 H10         0.5123   -0.3556   -0.8948 H         1 <0>         0.0733
     28 H11        -0.1165   -2.3450    1.2399 H         1 <0>         0.3850
     29 H12         4.2462    1.5111    0.8639 H         1 <0>         0.4004
     30 H13         5.5778    3.8475    0.6883 H         1 <0>         0.1053
     31 H14         5.7489    2.8165    3.5562 H         1 <0>         0.0834
     32 H15         6.0883    1.8666    2.0897 H         1 <0>         0.0905
     33 H16         8.1842    2.7262    3.0981 H         1 <0>         0.0939
     34 H17         7.9085    3.4406    1.4913 H         1 <0>         0.0914
     35 H18         7.2162    4.7459    4.1622 H         1 <0>         0.1439
     36 H19         6.7057    6.7268    2.7608 H         1 <0>         0.0939
     37 H20         7.0451    5.7768    1.2943 H         1 <0>         0.0895
     38 H21         4.6098    5.8672    1.7524 H         1 <0>         0.0941
     39 H22         4.8855    5.1528    3.3592 H         1 <0>         0.0846
     40 H23         9.2916    5.3453    2.1740 H         1 <0>         0.4332
     41 H24         8.9774    6.2247    3.5315 H         1 <0>         0.4373
     42 H25         9.5468    4.6840    3.6615 H         1 <0>         0.4365
@<TRIPOS>BOND
     1    1    8 1
     2    1    2 1
     3    1   20 1
     4    1   21 1
     5    2    3 1
     6    2   22 1
     7    2   23 1
     8    3    4 1
     9    3    5 1
    10    3   10 1
    11    5    6 1
    12    5   24 1
    13    5   25 1
    14    6    7 1
    15    6    8 1
    16    6    9 1
    17    8   26 1
    18    8   27 1
    19    9   28 1
    20   10   11 am
    21   10   29 1
    22   11   12 2
    23   11   13 1
    24   13   18 1
    25   13   14 1
    26   13   30 1
    27   14   15 1
    28   14   31 1
    29   14   32 1
    30   15   16 1
    31   15   33 1
    32   15   34 1
    33   16   17 1
    34   16   19 1
    35   16   35 1
    36   17   18 1
    37   17   36 1
    38   17   37 1
    39   18   38 1
    40   18   39 1
    41   19   40 1
    42   19   41 1
    43   19   42 1
@<TRIPOS>MOLECULE
ZINC40675046
   35    35     0     0     0
SMALL
USER_CHARGES

@<TRIPOS>ATOM
      1 C1         -1.5229   -0.2201   -0.4960 C.3       1 <0>        -0.1758
      2 C2         -0.1011    0.1820   -0.0989 C.3       1 <0>         0.0377
      3 C3         -0.0329    1.6993    0.0857 C.3       1 <0>        -0.1683
      4 C4          0.2711   -0.4985    1.1932 C.2       1 <0>         0.5205
      5 O1          0.1998    0.1087    2.2407 O.2       1 <0>        -0.4810
      6 N1          0.6830   -1.7817    1.1847 N.am      1 <0>        -0.8527
      7 N2          0.8358   -0.2255   -1.1545 N.4       1 <0>        -0.4978
      8 C5          2.1640    0.3360   -0.8738 C.3       1 <0>         0.0218
      9 H1          2.0729    1.4045   -0.6788 H         1 <0>         0.1573
     10 C6          2.7619   -0.3571    0.3522 C.3       1 <0>        -0.1510
     11 C7          4.1452    0.2276    0.6446 C.3       1 <0>        -0.1157
     12 C8          5.0583    0.0055   -0.5628 C.3       1 <0>        -0.1263
     13 C9          4.4604    0.6986   -1.7888 C.3       1 <0>        -0.1513
     14 C10         3.0771    0.1139   -2.0812 C.3       1 <0>         0.0920
     15 H2          2.6511    0.6076   -2.9546 H         1 <0>         0.0826
     16 O2          3.1964   -1.2870   -2.3368 O.3       1 <0>        -0.5723
     17 H3         -1.7921    0.2721   -1.4306 H         1 <0>         0.1005
     18 H4         -1.5715   -1.3010   -0.6275 H         1 <0>         0.0877
     19 H5         -2.2181    0.0823    0.2872 H         1 <0>         0.1163
     20 H6         -0.8069    2.0154    0.7850 H         1 <0>         0.1181
     21 H7          0.9460    1.9739    0.4787 H         1 <0>         0.0893
     22 H8         -0.1892    2.1896   -0.8752 H         1 <0>         0.0940
     23 H9          0.7400   -2.2673    0.3469 H         1 <0>         0.3981
     24 H10         0.9225   -2.2197    2.0164 H         1 <0>         0.4262
     25 H11         0.8951   -1.2324   -1.1812 H         1 <0>         0.4264
     26 H12         2.1114   -0.1989    1.2124 H         1 <0>         0.0939
     27 H13         2.8529   -1.4256    0.1572 H         1 <0>         0.0988
     28 H14         4.0542    1.2962    0.8396 H         1 <0>         0.0731
     29 H15         4.5712   -0.2661    1.5180 H         1 <0>         0.0865
     30 H16         6.0438    0.4221   -0.3545 H         1 <0>         0.0797
     31 H17         5.1494   -1.0630   -0.7578 H         1 <0>         0.0773
     32 H18         4.3694    1.7671   -1.5938 H         1 <0>         0.0845
     33 H19         5.1109    0.5403   -2.6490 H         1 <0>         0.0896
     34 H20         3.7624   -1.5024   -3.0907 H         1 <0>         0.4076
     35 H21         0.5078    0.1160   -2.0455 H         1 <0>         0.4327
@<TRIPOS>BOND
     1    1    2 1
     2    1   17 1
     3    1   18 1
     4    1   19 1
     5    2    3 1
     6    2    4 1
     7    2    7 1
     8    3   20 1
     9    3   21 1
    10    3   22 1
    11    4    5 2
    12    4    6 am
    13    6   23 1
    14    6   24 1
    15    7    8 1
    16    7   25 1
    17    7   35 1
    18    8    9 1
    19    8   14 1
    20    8   10 1
    21   10   11 1
    22   10   26 1
    23   10   27 1
    24   11   12 1
    25   11   28 1
    26   11   29 1
    27   12   13 1
    28   12   30 1
    29   12   31 1
    30   13   14 1
    31   13   32 1
    32   13   33 1
    33   14   15 1
    34   14   16 1
    35   16   34 1
@<TRIPOS>MOLECULE
ZINC44474388
   38    39     0     0     0
SMALL
USER_CHARGES

@<TRIPOS>ATOM
      1 C1         -0.0187    1.5258    0.0104 C.3       1 <0>        -0.1501
      2 C2          0.0021   -0.0041    0.0020 C.3       1 <0>        -0.0929
      3 C3         -1.4338   -0.5335    0.0112 C.3       1 <0>        -0.1329
      4 C4         -1.4095   -2.0646   -0.0322 C.3       1 <0>         0.1210
      5 N1         -0.5782   -2.5560    1.0751 N.pl3     1 <0>        -0.5940
      6 C5          0.7913   -2.0416    1.2125 C.3       1 <0>         0.1348
      7 C6          0.7423   -0.5108    1.2420 C.3       1 <0>        -0.1348
      8 C7         -1.0787   -3.4910    1.9773 C.2       1 <0>         0.3213
      9 C8         -0.4107   -4.0096    3.0342 C.2       1 <0>        -0.3060
     10 C9         -1.2929   -4.9129    3.6713 C.2       1 <0>        -0.1125
     11 C10        -2.4418   -4.8959    2.9734 C.2       1 <0>        -0.0981
     12 O1         -2.3097   -4.0290    1.9517 O.3       1 <0>        -0.1936
     13 C11        -3.6730   -5.7068    3.2857 C.3       1 <0>         0.1810
     14 H1         -3.6405   -6.0309    4.3259 H         1 <0>         0.1301
     15 C12        -3.7220   -6.9324    2.3710 C.3       1 <0>        -0.0556
     16 N2         -4.9802   -7.6580    2.5916 N.4       1 <0>        -0.6374
     17 N3         -4.8700   -4.8840    3.0663 N.3       1 <0>        -0.8354
     18 H2          1.0039    1.9031    0.0027 H         1 <0>         0.0593
     19 H3         -0.5459    1.8868   -0.8726 H         1 <0>         0.0581
     20 H4         -0.5289    1.8773    0.9072 H         1 <0>         0.0556
     21 H5          0.5127   -0.3554   -0.8946 H         1 <0>         0.0741
     22 H6         -1.9375   -0.2032    0.9196 H         1 <0>         0.0684
     23 H7         -1.9673   -0.1533   -0.8600 H         1 <0>         0.0790
     24 H8         -2.4239   -2.4493    0.0738 H         1 <0>         0.0780
     25 H9         -0.9879   -2.3966   -0.9810 H         1 <0>         0.0696
     26 H10         1.2290   -2.4111    2.1398 H         1 <0>         0.0875
     27 H11         1.3923   -2.3717    0.3653 H         1 <0>         0.0743
     28 H12         1.7577   -0.1143    1.2468 H         1 <0>         0.0834
     29 H13         0.2181   -0.1807    2.1388 H         1 <0>         0.0703
     30 H14         0.6010   -3.7785    3.3331 H         1 <0>         0.1503
     31 H15        -1.0833   -5.5042    4.5504 H         1 <0>         0.1510
     32 H16        -3.6650   -6.6119    1.3308 H         1 <0>         0.1368
     33 H17        -2.8805   -7.5875    2.5960 H         1 <0>         0.1483
     34 H18        -5.0330   -7.9546    3.5545 H         1 <0>         0.4377
     35 H19        -5.7592   -7.0515    2.3833 H         1 <0>         0.4267
     36 H20        -4.9231   -4.5709    2.1086 H         1 <0>         0.3626
     37 H21        -5.7058   -5.3839    3.3302 H         1 <0>         0.3408
     38 H22        -5.0125   -8.4662    1.9884 H         1 <0>         0.4431
@<TRIPOS>BOND
     1    1    2 1
     2    1   18 1
     3    1   19 1
     4    1   20 1
     5    2    7 1
     6    2    3 1
     7    2   21 1
     8    3    4 1
     9    3   22 1
    10    3   23 1
    11    4    5 1
    12    4   24 1
    13    4   25 1
    14    5    6 1
    15    5    8 1
    16    6    7 1
    17    6   26 1
    18    6   27 1
    19    7   28 1
    20    7   29 1
    21    8   12 1
    22    8    9 2
    23    9   10 1
    24    9   30 1
    25   10   11 2
    26   10   31 1
    27   11   12 1
    28   11   13 1
    29   13   14 1
    30   13   15 1
    31   13   17 1
    32   15   16 1
    33   15   32 1
    34   15   33 1
    35   16   34 1
    36   16   35 1
    37   16   38 1
    38   17   36 1
    39   17   37 1
@<TRIPOS>MOLECULE
ZINC55091429
   45    46     0     0     0
SMALL
USER_CHARGES

@<TRIPOS>ATOM
      1 C1          0.1093    1.1630    0.5003 C.3       1 <0>        -0.1806
      2 C2          0.1195   -0.3236    0.1389 C.3       1 <0>        -0.0848
      3 H1         -0.9010   -0.7066    0.1471 H         1 <0>         0.1005
      4 C3          0.7211   -0.5053   -1.2561 C.3       1 <0>        -0.1042
      5 H2          0.1220    0.0415   -1.9842 H         1 <0>         0.1162
      6 C4          0.7313   -1.9919   -1.6175 C.3       1 <0>        -0.1260
      7 C5          1.5723   -2.7595   -0.5955 C.3       1 <0>        -0.1193
      8 C6          0.9706   -2.5779    0.7995 C.3       1 <0>        -0.1391
      9 C7          0.9604   -1.0912    1.1609 C.3       1 <0>         0.0055
     10 H3          1.9809   -0.7083    1.1526 H         1 <0>         0.1776
     11 N1          0.3828   -0.9168    2.5002 N.4       1 <0>        -0.6352
     12 C8          2.1320    0.0241   -1.2675 C.2       1 <0>         0.5273
     13 O1          2.6769    0.3206   -0.2253 O.2       1 <0>        -0.5497
     14 N2          2.7883    0.1682   -2.4358 N.am      1 <0>        -0.6001
     15 C9          2.1028   -0.0685   -3.7136 C.3       1 <0>         0.0964
     16 C10         2.9134   -1.0819   -4.5277 C.3       1 <0>        -0.1176
     17 C11         4.3528   -0.5817   -4.6698 C.3       1 <0>        -0.1109
     18 C12         4.9898   -0.4552   -3.2840 C.3       1 <0>        -0.1262
     19 C13         4.2012    0.5708   -2.4560 C.3       1 <0>         0.1100
     20 C14         5.1446   -1.5596   -5.4990 C.2       1 <0>         0.5197
     21 O2          4.6106   -2.5581   -5.9334 O.2       1 <0>        -0.5384
     22 N3          6.4463   -1.3246   -5.7578 N.am      1 <0>        -0.8538
     23 H4          1.1298    1.5459    0.4920 H         1 <0>         0.0909
     24 H5         -0.4898    1.7098   -0.2279 H         1 <0>         0.0794
     25 H6         -0.3193    1.2924    1.4940 H         1 <0>         0.0537
     26 H7         -0.2892   -2.3749   -1.6093 H         1 <0>         0.0876
     27 H8          1.1599   -2.1213   -2.6113 H         1 <0>         0.0887
     28 H9          1.5795   -3.8186   -0.8530 H         1 <0>         0.0899
     29 H10         2.5928   -2.3766   -0.6037 H         1 <0>         0.0737
     30 H11        -0.0499   -2.9608    0.8077 H         1 <0>         0.0862
     31 H12         1.5698   -3.1247    1.5276 H         1 <0>         0.0886
     32 H13        -0.5619   -1.2713    2.5078 H         1 <0>         0.4271
     33 H14         0.9374   -1.4230    3.1742 H         1 <0>         0.4351
     34 H15         1.1053   -0.4654   -3.5251 H         1 <0>         0.0944
     35 H16         2.0274    0.8678   -4.2667 H         1 <0>         0.0818
     36 H17         2.9116   -2.0443   -4.0160 H         1 <0>         0.0780
     37 H18         2.4680   -1.1941   -5.5162 H         1 <0>         0.0919
     38 H19         4.3521    0.3922   -5.1594 H         1 <0>         0.1046
     39 H20         4.9684   -1.4235   -2.7840 H         1 <0>         0.0750
     40 H21         6.0222   -0.1212   -3.3873 H         1 <0>         0.0858
     41 H22         4.2934    1.5581   -2.9086 H         1 <0>         0.0782
     42 H23         4.5886    0.5959   -1.4375 H         1 <0>         0.1000
     43 H24         6.8734   -0.5261   -5.4103 H         1 <0>         0.4022
     44 H25         6.9560   -1.9541   -6.2915 H         1 <0>         0.4059
     45 H26         0.3761    0.0636    2.7386 H         1 <0>         0.4338
@<TRIPOS>BOND
     1    1    2 1
     2    1   23 1
     3    1   24 1
     4    1   25 1
     5    2    3 1
     6    2    9 1
     7    2    4 1
     8    4    5 1
     9    4    6 1
    10    4   12 1
    11    6    7 1
    12    6   26 1
    13    6   27 1
    14    7    8 1
    15    7   28 1
    16    7   29 1
    17    8    9 1
    18    8   30 1
    19    8   31 1
    20    9   10 1
    21    9   11 1
    22   11   32 1
    23   11   33 1
    24   11   45 1
    25   12   13 2
    26   12   14 am
    27   14   19 1
    28   14   15 1
    29   15   16 1
    30   15   34 1
    31   15   35 1
    32   16   17 1
    33   16   36 1
    34   16   37 1
    35   17   18 1
    36   17   20 1
    37   17   38 1
    38   18   19 1
    39   18   39 1
    40   18   40 1
    41   19   41 1
    42   19   42 1
    43   20   21 2
    44   20   22 am
    45   22   43 1
    46   22   44 1
@<TRIPOS>MOLECULE
ZINC02011710
   53    57     0     0     0
SMALL
USER_CHARGES
3-[1-(3-aminopropyl)indol-3-yl]-4-(1-methylindol-3-yl)-pyrrole-2,5-dione
@<TRIPOS>ATOM
      1 C1          2.9798    0.0203   -0.0236 C.3       1 <0>         0.0761
      2 N1          2.5076    1.4071   -0.0132 N.pl3     1 <0>        -0.4787
      3 C2          3.3143    2.5034   -0.0147 C.2       1 <0>         0.1022
      4 C3          2.5522    3.6343   -0.0023 C.2       1 <0>        -0.1392
      5 C4          1.1465    3.1926    0.0078 C.ar      1 <0>        -0.0760
      6 C5          1.1819    1.7882    0.0004 C.ar      1 <0>         0.0933
      7 C6         -0.0126    1.0758    0.0080 C.ar      1 <0>        -0.1271
      8 C7         -1.2150    1.7493    0.0173 C.ar      1 <0>        -0.0984
      9 C8         -1.2485    3.1361    0.0277 C.ar      1 <0>        -0.1377
     10 C9         -0.0761    3.8600    0.0215 C.ar      1 <0>        -0.0733
     11 C10         3.0388    5.0242    0.0008 C.2       1 <0>        -0.0188
     12 C11         3.5826    5.7216   -1.0715 C.2       1 <0>        -0.0422
     13 C12         3.9090    7.0690   -0.5604 C.2       1 <0>         0.5562
     14 O1          4.4020    7.9719   -1.2067 O.2       1 <0>        -0.4454
     15 N2          3.5747    7.1276    0.7397 N.am      1 <0>        -0.6896
     16 C13         3.0535    5.9576    1.1461 C.2       1 <0>         0.5526
     17 O2          2.6594    5.7089    2.2681 O.2       1 <0>        -0.4403
     18 C14         3.7889    5.2201   -2.4406 C.2       1 <0>        -0.1134
     19 C15         2.8311    5.0306   -3.3928 C.2       1 <0>         0.0897
     20 N3          3.4049    4.5552   -4.5318 N.pl3     1 <0>        -0.4822
     21 C16         4.7667    4.4174   -4.3604 C.ar      1 <0>         0.0946
     22 C17         5.0715    4.8307   -3.0527 C.ar      1 <0>        -0.0755
     23 C18         6.3872    4.7911   -2.5969 C.ar      1 <0>        -0.0673
     24 C19         7.3878    4.3564   -3.4386 C.ar      1 <0>        -0.1340
     25 C20         7.0891    3.9536   -4.7319 C.ar      1 <0>        -0.0917
     26 C21         5.7911    3.9820   -5.1942 C.ar      1 <0>        -0.1329
     27 C22         2.6797    4.2352   -5.7638 C.3       1 <0>         0.1173
     28 C23         2.3404    2.7434   -5.7830 C.3       1 <0>        -0.1765
     29 C24         1.5830    2.4091   -7.0697 C.3       1 <0>        -0.0009
     30 H1          3.0878   -0.3191   -1.0537 H         1 <0>         0.0686
     31 H2          3.9440   -0.0390    0.4814 H         1 <0>         0.0882
     32 H3          2.2591   -0.6128    0.4939 H         1 <0>         0.0854
     33 H4          4.3940    2.4811   -0.0246 H         1 <0>         0.1741
     34 H5          0.0021   -0.0041    0.0020 H         1 <0>         0.1196
     35 H6         -2.1401    1.1920    0.0190 H         1 <0>         0.1275
     36 H7         -2.1979    3.6507    0.0383 H         1 <0>         0.1261
     37 H8         -0.1049    4.9396    0.0275 H         1 <0>         0.1203
     38 H9          3.6926    7.9062    1.3060 H         1 <0>         0.4317
     39 H10         1.7773    5.2283   -3.2629 H         1 <0>         0.1750
     40 H11         6.6225    5.1042   -1.5905 H         1 <0>         0.1234
     41 H12         8.4096    4.3296   -3.0898 H         1 <0>         0.1291
     42 H13         7.8814    3.6147   -5.3830 H         1 <0>         0.1292
     43 H14         5.5696    3.6668   -6.2032 H         1 <0>         0.1160
     44 H15         1.7593    4.8176   -5.8054 H         1 <0>         0.1030
     45 H16         3.3022    4.4773   -6.6252 H         1 <0>         0.0987
     46 H17         3.2608    2.1609   -5.7414 H         1 <0>         0.0951
     47 H18         1.7179    2.5012   -4.9217 H         1 <0>         0.0964
     48 H19         0.6627    2.9916   -7.1113 H         1 <0>         0.1395
     49 H20         2.2055    2.6513   -7.9311 H         1 <0>         0.1361
     50 H21         0.7348    0.7142   -6.2659 H         1 <0>         0.4385
     51 H22         0.7564    0.7307   -7.9288 H         1 <0>         0.4432
     52 N4          1.2807    0.9670   -7.0880 N.4       1 <0>        -0.6464
     53 H23         2.1604    0.4376   -7.0818 H         1 <0>         0.4406
@<TRIPOS>BOND
     1    1    2 1
     2    1   30 1
     3    1   31 1
     4    1   32 1
     5    2    6 1
     6    2    3 1
     7    3    4 2
     8    3   33 1
     9    4    5 1
    10    4   11 1
    11    5   10 ar
    12    5    6 ar
    13    6    7 ar
    14    7    8 ar
    15    7   34 1
    16    8    9 ar
    17    8   35 1
    18    9   10 ar
    19    9   36 1
    20   10   37 1
    21   11   16 1
    22   11   12 2
    23   12   13 1
    24   12   18 1
    25   13   14 2
    26   13   15 am
    27   15   16 am
    28   15   38 1
    29   16   17 2
    30   18   22 1
    31   18   19 2
    32   19   20 1
    33   19   39 1
    34   20   21 1
    35   20   27 1
    36   21   26 ar
    37   21   22 ar
    38   22   23 ar
    39   23   24 ar
    40   23   40 1
    41   24   25 ar
    42   24   41 1
    43   25   26 ar
    44   25   42 1
    45   26   43 1
    46   27   28 1
    47   27   44 1
    48   27   45 1
    49   28   29 1
    50   28   46 1
    51   28   47 1
    52   29   48 1
    53   29   49 1
    54   29   52 1
    55   50   52 1
    56   51   52 1
    57   52   53 1
@<TRIPOS>MOLECULE
ZINC08636728
   42    45     0     0     0
SMALL
USER_CHARGES
3-(2,4-dichlorophenyl)-1-(4-imino-1-phenyl-pyrazolo[5,4-d]pyrimidin-5-yl)thiourea
@<TRIPOS>ATOM
      1 C1          6.2353    2.2023   -2.3786 C.ar      1 <0>        -0.0939
      2 C2          5.7654    3.4641   -2.6939 C.ar      1 <0>        -0.1020
      3 C3          4.5227    3.8708   -2.2492 C.ar      1 <0>        -0.0915
      4 C4          3.7449    3.0112   -1.4847 C.ar      1 <0>         0.1060
      5 C5          4.2219    1.7467   -1.1653 C.ar      1 <0>        -0.0977
      6 C6          5.4630    1.3438   -1.6179 C.ar      1 <0>        -0.0987
      7 N1          2.4844    3.4209   -1.0318 N.pl3     1 <0>        -0.2715
      8 C7          1.3874    2.6249   -0.8950 C.2       1 <0>         0.3748
      9 C8          0.3572    3.4437   -0.4162 C.2       1 <0>        -0.3123
     10 C9          0.8803    4.7399   -0.2765 C.2       1 <0>         0.1305
     11 N2          2.1344    4.7196   -0.6409 N.2       1 <0>        -0.2181
     12 C10        -0.9580    2.8320   -0.1755 C.cat     1 <0>         0.5890
     13 N3         -1.9677    3.5373    0.2720 N.pl3     1 <0>        -0.7670
     14 N4         -1.0859    1.4814   -0.4464 N.pl3     1 <0>        -0.3028
     15 C11        -0.0148    0.7808   -0.9049 C.2       1 <0>         0.4571
     16 N5          1.1472    1.3213   -1.1175 N.2       1 <0>        -0.4796
     17 N6         -2.3131    0.8368   -0.2438 N.pl3     1 <0>        -0.5194
     18 C12        -2.3435   -0.4080    0.2721 C.2       1 <0>         0.5399
     19 S1         -0.8872   -1.1750    0.7435 S.2       1 <0>        -0.5255
     20 N7         -3.5202   -1.0490    0.4170 N.pl3     1 <0>        -0.5974
     21 C13        -3.5590   -2.3145    1.0145 C.ar      1 <0>         0.1153
     22 C14        -2.7316   -2.6005    2.0922 C.ar      1 <0>        -0.0520
     23 C15        -2.7721   -3.8496    2.6802 C.ar      1 <0>        -0.0923
     24 C16        -3.6365   -4.8162    2.1966 C.ar      1 <0>        -0.0068
     25 C17        -4.4621   -4.5349    1.1226 C.ar      1 <0>        -0.0943
     26 C18        -4.4299   -3.2847    0.5338 C.ar      1 <0>        -0.0213
     27 Cl1        -5.4714   -2.9294   -0.8088 Cl        1 <0>        -0.0415
     28 Cl2        -3.6844   -6.3849    2.9386 Cl        1 <0>        -0.0338
     29 H1          7.2074    1.8866   -2.7275 H         1 <0>         0.1395
     30 H2          6.3710    4.1323   -3.2882 H         1 <0>         0.1422
     31 H3          4.1561    4.8563   -2.4961 H         1 <0>         0.1383
     32 H4          3.6212    1.0776   -0.5672 H         1 <0>         0.1370
     33 H5          5.8326    0.3589   -1.3736 H         1 <0>         0.1425
     34 H6          0.3378    5.6061    0.0726 H         1 <0>         0.2176
     35 H7         -2.9417    3.0558    0.4439 H         1 <0>         0.4552
     36 H8         -0.1369   -0.2733   -1.1060 H         1 <0>         0.2574
     37 H9         -3.2520    1.3466   -0.5058 H         1 <0>         0.4644
     38 H10        -4.4501   -0.5778    0.0658 H         1 <0>         0.4461
     39 H11        -2.0570   -1.8468    2.4705 H         1 <0>         0.1675
     40 H12        -2.1288   -4.0721    3.5187 H         1 <0>         0.1533
     41 H13        -5.1355   -5.2911    0.7469 H         1 <0>         0.1574
     42 H14        -1.8413    4.6108    0.4758 H         1 <0>         0.4886
@<TRIPOS>BOND
     1    1    6 ar
     2    1    2 ar
     3    1   29 1
     4    2    3 ar
     5    2   30 1
     6    3    4 ar
     7    3   31 1
     8    4    5 ar
     9    4    7 1
    10    5    6 ar
    11    5   32 1
    12    6   33 1
    13    7   11 1
    14    7    8 1
    15    8   16 1
    16    8    9 2
    17    9   10 1
    18    9   12 1
    19   10   11 2
    20   10   34 1
    21   12   13 2
    22   12   14 1
    23   13   35 1
    24   13   42 1
    25   14   15 1
    26   14   17 1
    27   15   16 2
    28   15   36 1
    29   17   18 1
    30   17   37 1
    31   18   19 2
    32   18   20 1
    33   20   21 1
    34   20   38 1
    35   21   26 ar
    36   21   22 ar
    37   22   23 ar
    38   22   39 1
    39   23   24 ar
    40   23   40 1
    41   24   25 ar
    42   24   28 1
    43   25   26 ar
    44   25   41 1
    45   26   27 1
@<TRIPOS>MOLECULE
ZINC37063223
   41    42     0     0     0
SMALL
USER_CHARGES

@<TRIPOS>ATOM
      1 C1         -0.0187    1.5258    0.0104 C.3       1 <0>        -0.1898
      2 C2          0.0021   -0.0041    0.0020 C.3       1 <0>        -0.0147
      3 N1         -1.3761   -0.5125    0.0124 N.4       1 <0>        -0.3961
      4 C3         -2.0277   -0.1576    1.2912 C.3       1 <0>        -0.0114
      5 C4         -2.9349   -1.3687    1.6225 C.3       1 <0>        -0.1440
      6 C5         -2.0641   -2.5557    1.1330 C.3       1 <0>        -0.1348
      7 C6         -1.3641   -1.9813   -0.1166 C.3       1 <0>         0.0168
      8 H1         -0.3362   -2.3409   -0.1641 H         1 <0>         0.1525
      9 C7         -2.1238   -2.3993   -1.3771 C.3       1 <0>         0.0904
     10 N2         -1.5568   -1.7114   -2.5397 N.pl3     1 <0>        -1.1309
     11 S1         -1.9178   -2.2347   -4.0688 S.o2      1 <0>         2.6685
     12 O1         -1.2479   -1.3599   -4.9661 O.2       1 <0>        -0.9176
     13 O2         -1.7091   -3.6403   -4.0769 O.2       1 <0>        -0.9172
     14 C8         -3.6443   -1.9805   -4.3124 C.ar      1 <0>        -0.7089
     15 C9         -4.5432   -2.9765   -3.9744 C.ar      1 <0>         0.0440
     16 C10        -5.8979   -2.7801   -4.1648 C.ar      1 <0>        -0.1774
     17 C11        -6.3567   -1.5812   -4.6955 C.ar      1 <0>         0.2906
     18 C12        -5.4519   -0.5830   -5.0333 C.ar      1 <0>        -0.1783
     19 C13        -4.0987   -0.7831   -4.8359 C.ar      1 <0>         0.0481
     20 Br1        -2.8666    0.5780   -5.2890 Br        1 <0>         0.0128
     21 N3         -7.7252   -1.3801   -4.8894 N.pl3     1 <0>        -0.8477
     22 Br2        -3.9176   -4.6082   -3.2520 Br        1 <0>         0.0121
     23 H2          1.0039    1.9031    0.0027 H         1 <0>         0.1085
     24 H3         -0.5459    1.8868   -0.8726 H         1 <0>         0.0809
     25 H4         -0.5289    1.8773    0.9072 H         1 <0>         0.0814
     26 H5          0.5123   -0.3556   -0.8948 H         1 <0>         0.1292
     27 H6          0.5293   -0.3651    0.8851 H         1 <0>         0.1346
     28 H7         -1.2802   -0.0186    2.0722 H         1 <0>         0.1361
     29 H8         -2.6275    0.7449    1.1738 H         1 <0>         0.1349
     30 H9         -3.1200   -1.4363    2.6945 H         1 <0>         0.1210
     31 H10        -3.8722   -1.3176    1.0684 H         1 <0>         0.0991
     32 H11        -1.3319   -2.8348    1.8908 H         1 <0>         0.1088
     33 H12        -2.6890   -3.4082    0.8669 H         1 <0>         0.1186
     34 H13        -2.0355   -3.4770   -1.5139 H         1 <0>         0.1299
     35 H14        -3.1752   -2.1311   -1.2734 H         1 <0>         0.0932
     36 H15        -0.9699   -0.9494   -2.4138 H         1 <0>         0.4105
     37 H16        -6.5991   -3.5581   -3.9015 H         1 <0>         0.1500
     38 H17        -5.8057    0.3501   -5.4462 H         1 <0>         0.1497
     39 H18        -8.3562   -2.0779   -4.6534 H         1 <0>         0.4124
     40 H19        -8.0445   -0.5425   -5.2601 H         1 <0>         0.4124
     41 H20        -1.8936   -0.1086   -0.7537 H         1 <0>         0.4217
@<TRIPOS>BOND
     1    1    2 1
     2    1   23 1
     3    1   24 1
     4    1   25 1
     5    2    3 1
     6    2   26 1
     7    2   27 1
     8    3    7 1
     9    3    4 1
    10    3   41 1
    11    4    5 1
    12    4   28 1
    13    4   29 1
    14    5    6 1
    15    5   30 1
    16    5   31 1
    17    6    7 1
    18    6   32 1
    19    6   33 1
    20    7    8 1
    21    7    9 1
    22    9   10 1
    23    9   34 1
    24    9   35 1
    25   10   11 1
    26   10   36 1
    27   11   12 2
    28   11   13 2
    29   11   14 1
    30   14   19 ar
    31   14   15 ar
    32   15   16 ar
    33   15   22 1
    34   16   17 ar
    35   16   37 1
    36   17   18 ar
    37   17   21 1
    38   18   19 ar
    39   18   38 1
    40   19   20 1
    41   21   39 1
    42   21   40 1
@<TRIPOS>MOLECULE
ZINC39685699
   74    76     0     0     0
SMALL
USER_CHARGES

@<TRIPOS>ATOM
      1 C1         -2.5952    0.3407    1.5024 C.3       1 <0>        -0.1168
      2 C2         -1.4100   -0.4335    0.9857 C.ar      1 <0>        -0.0346
      3 C3         -1.4394   -0.9790   -0.2813 C.ar      1 <0>        -0.1247
      4 C4         -0.3523   -1.6899   -0.7571 C.ar      1 <0>        -0.0879
      5 C5          0.7711   -1.8590    0.0331 C.ar      1 <0>        -0.1309
      6 C6          0.8136   -1.3185    1.3014 C.ar      1 <0>        -0.0884
      7 C7         -0.2779   -0.5955    1.7856 C.ar      1 <0>        -0.1397
      8 C8         -0.2370   -0.0085    3.1419 C.2       1 <0>         0.6005
      9 O1         -0.4997    1.1672    3.3035 O.2       1 <0>        -0.5236
     10 N1          0.0914   -0.7771    4.1992 N.am      1 <0>        -0.6143
     11 C9          0.5611   -2.1826    4.1894 C.3       1 <0>         0.1078
     12 C10         1.6536   -2.2368    5.2807 C.3       1 <0>        -0.1144
     13 H1          1.6081   -3.1850    5.8165 H         1 <0>         0.1200
     14 C11         1.3213   -1.0708    6.2268 C.3       1 <0>        -0.0720
     15 C12         0.0708   -0.4054    5.6343 C.3       1 <0>         0.1069
     16 C13         2.4754   -0.0736    6.2622 C.3       1 <0>        -0.1597
     17 C14         2.1456    1.0467    7.2526 C.3       1 <0>        -0.0102
     18 N2          1.9261    0.4741    8.5864 N.4       1 <0>        -0.5048
     19 C15         0.7568   -0.4130    8.5644 C.3       1 <0>        -0.0099
     20 C16         1.0277   -1.5949    7.6292 C.3       1 <0>        -0.1351
     21 C17         3.0171   -2.0462    4.6681 C.2       1 <0>         0.5210
     22 O2          3.1385   -1.4045    3.6461 O.2       1 <0>        -0.5162
     23 N3          4.1018   -2.5890    5.2558 N.am      1 <0>        -0.7047
     24 C18         5.4291   -2.3921    4.6678 C.3       1 <0>         0.1262
     25 H2          5.3307   -2.2322    3.5940 H         1 <0>         0.1219
     26 C19         6.0938   -1.1709    5.3064 C.3       1 <0>        -0.1027
     27 C20         5.3436    0.0952    4.8880 C.3       1 <0>        -0.1599
     28 C21         6.0543   -1.3072    6.8298 C.3       1 <0>        -0.1480
     29 C22         6.2757   -3.6133    4.9183 C.2       1 <0>         0.5142
     30 O3          5.8376   -4.5292    5.5818 O.2       1 <0>        -0.5296
     31 N4          7.5197   -3.6878    4.4052 N.am      1 <0>        -0.7156
     32 C23         8.3040   -4.9154    4.5605 C.3       1 <0>         0.1689
     33 C24         7.5624   -6.0809    3.9028 C.3       1 <0>        -0.1644
     34 C25         9.6686   -4.7369    3.8921 C.3       1 <0>        -0.1594
     35 C26         8.4999   -5.2105    6.0489 C.3       1 <0>        -0.1645
     36 H3         -2.4393    1.4048    1.3252 H         1 <0>         0.0818
     37 H4         -3.4966    0.0142    0.9836 H         1 <0>         0.0711
     38 H5         -2.7071    0.1630    2.5719 H         1 <0>         0.0621
     39 H6         -2.3133   -0.8509   -0.9029 H         1 <0>         0.1321
     40 H7         -0.3805   -2.1152   -1.7494 H         1 <0>         0.1300
     41 H8          1.6163   -2.4158   -0.3440 H         1 <0>         0.1284
     42 H9          1.6910   -1.4512    1.9171 H         1 <0>         0.1428
     43 H10        -0.2574   -2.8585    4.4372 H         1 <0>         0.0901
     44 H11         0.9828   -2.4356    3.2166 H         1 <0>         0.1053
     45 H12         0.1270    0.6773    5.7476 H         1 <0>         0.0892
     46 H13        -0.8276   -0.7930    6.1148 H         1 <0>         0.0854
     47 H14         3.3862   -0.5823    6.5782 H         1 <0>         0.1032
     48 H15         2.6207    0.3502    5.2685 H         1 <0>         0.1300
     49 H16         2.9756    1.7522    7.2924 H         1 <0>         0.1386
     50 H17         1.2438    1.5653    6.9272 H         1 <0>         0.1360
     51 H18         2.7410   -0.0526    8.8631 H         1 <0>         0.4271
     52 H19         0.5632   -0.7834    9.5711 H         1 <0>         0.1407
     53 H20        -0.1121    0.1403    8.2080 H         1 <0>         0.1336
     54 H21         0.1522   -2.2435    7.5994 H         1 <0>         0.1233
     55 H22         1.8864   -2.1583    7.9942 H         1 <0>         0.0983
     56 H23         4.0036   -3.1099    6.0681 H         1 <0>         0.4089
     57 H24         7.1299   -1.1059    4.9741 H         1 <0>         0.0876
     58 H25         4.3335    0.0710    5.2970 H         1 <0>         0.0620
     59 H26         5.8688    0.9712    5.2687 H         1 <0>         0.0577
     60 H27         5.2940    0.1455    3.8003 H         1 <0>         0.0678
     61 H28         6.5888   -2.2092    7.1279 H         1 <0>         0.0617
     62 H29         6.5279   -0.4372    7.2848 H         1 <0>         0.0630
     63 H30         5.0183   -1.3722    7.1621 H         1 <0>         0.0476
     64 H31         7.8958   -2.9285    3.9330 H         1 <0>         0.4015
     65 H32         7.4229   -5.8707    2.8424 H         1 <0>         0.0559
     66 H33         8.1459   -6.9943    4.0183 H         1 <0>         0.0686
     67 H34         6.5903   -6.2081    4.3790 H         1 <0>         0.0735
     68 H35        10.1969   -3.9065    4.3607 H         1 <0>         0.0636
     69 H36        10.2521   -5.6503    4.0076 H         1 <0>         0.0785
     70 H37         9.5290   -4.5266    2.8317 H         1 <0>         0.0643
     71 H38         7.5277   -5.3377    6.5252 H         1 <0>         0.0790
     72 H39         9.0833   -6.1239    6.1645 H         1 <0>         0.0663
     73 H40         9.0281   -4.3802    6.5175 H         1 <0>         0.0536
     74 H41         1.7692    1.2188    9.2489 H         1 <0>         0.4345
@<TRIPOS>BOND
     1    1    2 1
     2    1   36 1
     3    1   37 1
     4    1   38 1
     5    2    7 ar
     6    2    3 ar
     7    3    4 ar
     8    3   39 1
     9    4    5 ar
    10    4   40 1
    11    5    6 ar
    12    5   41 1
    13    6    7 ar
    14    6   42 1
    15    7    8 1
    16    8    9 2
    17    8   10 am
    18   10   15 1
    19   10   11 1
    20   11   12 1
    21   11   43 1
    22   11   44 1
    23   12   13 1
    24   12   14 1
    25   12   21 1
    26   14   20 1
    27   14   15 1
    28   14   16 1
    29   15   45 1
    30   15   46 1
    31   16   17 1
    32   16   47 1
    33   16   48 1
    34   17   18 1
    35   17   49 1
    36   17   50 1
    37   18   19 1
    38   18   51 1
    39   18   74 1
    40   19   20 1
    41   19   52 1
    42   19   53 1
    43   20   54 1
    44   20   55 1
    45   21   22 2
    46   21   23 am
    47   23   24 1
    48   23   56 1
    49   24   25 1
    50   24   26 1
    51   24   29 1
    52   26   27 1
    53   26   28 1
    54   26   57 1
    55   27   58 1
    56   27   59 1
    57   27   60 1
    58   28   61 1
    59   28   62 1
    60   28   63 1
    61   29   30 2
    62   29   31 am
    63   31   32 1
    64   31   64 1
    65   32   33 1
    66   32   34 1
    67   32   35 1
    68   33   65 1
    69   33   66 1
    70   33   67 1
    71   34   68 1
    72   34   69 1
    73   34   70 1
    74   35   71 1
    75   35   72 1
    76   35   73 1
@<TRIPOS>MOLECULE
ZINC27676759
   55    57     0     0     0
SMALL
USER_CHARGES

@<TRIPOS>ATOM
      1 C1         -0.4878    1.4200   -0.1202 C.3       1 <0>        -0.1821
      2 C2         -0.3248   -0.0779   -0.0890 C.2       1 <0>         0.5233
      3 O1          0.7819   -0.5657    0.0002 O.2       1 <0>        -0.5188
      4 N1         -1.4090   -0.8753   -0.1603 N.am      1 <0>        -0.7184
      5 C3         -1.2506   -2.3314   -0.1299 C.3       1 <0>         0.1483
      6 H1         -2.2300   -2.8050   -0.1975 H         1 <0>         0.1083
      7 C4         -0.3870   -2.7752   -1.3124 C.3       1 <0>        -0.0540
      8 C5         -1.1098   -2.4795   -2.6012 C.2       1 <0>        -0.1729
      9 C6         -1.8809   -3.3296   -3.2974 C.2       1 <0>         0.0563
     10 N2         -2.3697   -2.7084   -4.4143 N.pl3     1 <0>        -0.5933
     11 H2         -2.9510   -3.1211   -5.0721 H         1 <0>         0.4178
     12 C7         -1.9134   -1.4103   -4.4655 C.ar      1 <0>         0.0946
     13 C8         -1.1093   -1.2080   -3.3287 C.ar      1 <0>        -0.0936
     14 C9         -0.5096    0.0337   -3.1117 C.ar      1 <0>        -0.0786
     15 C10        -0.7100    1.0491   -4.0043 C.ar      1 <0>        -0.1426
     16 C11        -1.5055    0.8558   -5.1250 C.ar      1 <0>        -0.0942
     17 C12        -2.0994   -0.3645   -5.3633 C.ar      1 <0>        -0.1290
     18 C13        -0.5841   -2.7375    1.1592 C.2       1 <0>         0.5070
     19 O2          0.0471   -1.9226    1.7984 O.2       1 <0>        -0.4888
     20 N3         -0.6894   -4.0061    1.6018 N.am      1 <0>        -0.7313
     21 C14        -0.0415   -4.4009    2.8551 C.3       1 <0>         0.1045
     22 C15        -0.4077   -5.8494    3.1843 C.3       1 <0>         0.1217
     23 H3         -1.4924   -5.9522    3.2139 H         1 <0>         0.1584
     24 C16         0.1547   -6.7628    2.1258 C.2       1 <0>        -0.2609
     25 C17        -0.4708   -7.3235    1.0620 C.2       1 <0>        -0.0775
     26 C18         0.2531   -8.1380    0.2115 C.2       1 <0>        -0.1722
     27 C19         1.5671   -8.3518    0.4664 C.2       1 <0>        -0.1109
     28 S1          1.8197   -7.3807    1.9429 S.3       1 <0>         0.0654
     29 N4          0.1544   -6.2114    4.4924 N.4       1 <0>        -0.3842
     30 C20        -0.4195   -5.3432    5.5291 C.3       1 <0>        -0.0548
     31 C21        -0.1685   -7.6126    4.7933 C.3       1 <0>        -0.0496
     32 H4          0.4916    1.8935   -0.0526 H         1 <0>         0.0946
     33 H5         -0.9699    1.7137   -1.0526 H         1 <0>         0.0909
     34 H6         -1.1031    1.7361    0.7222 H         1 <0>         0.0873
     35 H7         -2.2942   -0.4852   -0.2316 H         1 <0>         0.4073
     36 H8          0.5593   -2.2345   -1.2942 H         1 <0>         0.1015
     37 H9         -0.1952   -3.8458   -1.2407 H         1 <0>         0.0757
     38 H10        -2.0850   -4.3526   -3.0175 H         1 <0>         0.1666
     39 H11         0.1102    0.1916   -2.2415 H         1 <0>         0.1208
     40 H12        -0.2458    2.0096   -3.8360 H         1 <0>         0.1237
     41 H13        -1.6550    1.6681   -5.8209 H         1 <0>         0.1276
     42 H14        -2.7177   -0.5046   -6.2377 H         1 <0>         0.1210
     43 H15        -1.1942   -4.6578    1.0906 H         1 <0>         0.4035
     44 H16         1.0398   -4.3148    2.7479 H         1 <0>         0.0895
     45 H17        -0.3798   -3.7486    3.6602 H         1 <0>         0.0974
     46 H18        -1.5192   -7.1371    0.8819 H         1 <0>         0.1442
     47 H19        -0.2213   -8.5974   -0.6431 H         1 <0>         0.1521
     48 H20         2.2778   -8.9509   -0.0835 H         1 <0>         0.2008
     49 H21        -1.5073   -5.3753    5.4687 H         1 <0>         0.1277
     50 H22        -0.0997   -5.6903    6.5116 H         1 <0>         0.1334
     51 H23        -0.0772   -4.3197    5.3763 H         1 <0>         0.1286
     52 H24         0.2573   -8.2568    4.0240 H         1 <0>         0.1238
     53 H25         0.2486   -7.8811    5.7638 H         1 <0>         0.1311
     54 H26        -1.2508   -7.7394    4.8152 H         1 <0>         0.1261
     55 H27         1.1563   -6.0940    4.4721 H         1 <0>         0.4266
@<TRIPOS>BOND
     1    1    2 1
     2    1   32 1
     3    1   33 1
     4    1   34 1
     5    2    3 2
     6    2    4 am
     7    4    5 1
     8    4   35 1
     9    5    6 1
    10    5    7 1
    11    5   18 1
    12    7    8 1
    13    7   36 1
    14    7   37 1
    15    8   13 1
    16    8    9 2
    17    9   10 1
    18    9   38 1
    19   10   11 1
    20   10   12 1
    21   12   17 ar
    22   12   13 ar
    23   13   14 ar
    24   14   15 ar
    25   14   39 1
    26   15   16 ar
    27   15   40 1
    28   16   17 ar
    29   16   41 1
    30   17   42 1
    31   18   19 2
    32   18   20 am
    33   20   21 1
    34   20   43 1
    35   21   22 1
    36   21   44 1
    37   21   45 1
    38   22   23 1
    39   22   24 1
    40   22   29 1
    41   24   28 1
    42   24   25 2
    43   25   26 1
    44   25   46 1
    45   26   27 2
    46   26   47 1
    47   27   28 1
    48   27   48 1
    49   29   30 1
    50   29   31 1
    51   29   55 1
    52   30   49 1
    53   30   50 1
    54   30   51 1
    55   31   52 1
    56   31   53 1
    57   31   54 1
@<TRIPOS>MOLECULE
ZINC08762992
   67    71     0     0     0
SMALL
USER_CHARGES
hydroxy-[2-(5-methoxy-1H-indol-3-yl)ethylaminomethyl]-dimethyl-BLAHone
@<TRIPOS>ATOM
      1 C1          4.6865    1.8562   -1.7786 C.3       1 <0>        -0.1512
      2 C2          3.5358    2.3883   -0.9358 C.3       1 <0>        -0.0714
      3 H1          3.3563    3.4354   -1.2317 H         1 <0>         0.0669
      4 C3          3.9114    2.3874    0.5425 C.3       1 <0>        -0.1143
      5 C4          2.8032    3.1291    1.3044 C.3       1 <0>        -0.1002
      6 C5          1.5045    2.4194    1.0378 C.2       1 <0>        -0.1090
      7 C6          1.2733    1.7606   -0.0573 C.2       1 <0>        -0.1377
      8 C7          2.2489    1.6242   -1.1965 C.3       1 <0>         0.0037
      9 C8          2.4812    0.1437   -1.4541 C.3       1 <0>         0.1454
     10 H2          2.9623    0.0216   -2.4337 H         1 <0>         0.0631
     11 C9          1.2515   -0.7203   -1.4525 C.3       1 <0>        -0.1403
     12 H3          1.6066   -1.7627   -1.3074 H         1 <0>         0.1034
     13 C10         0.2247   -0.4512   -0.3415 C.3       1 <0>         0.1051
     14 H4          0.5353   -0.8782    0.6178 H         1 <0>         0.1470
     15 C11        -0.0585    1.0544   -0.2173 C.3       1 <0>        -0.1033
     16 O1         -1.0068   -1.0573   -0.8640 O.3       1 <0>        -0.3204
     17 C12        -0.9587   -1.1935   -2.1981 C.2       1 <0>         0.4839
     18 O2         -1.8491   -1.6290   -2.8946 O.2       1 <0>        -0.4572
     19 C13         0.3925   -0.7164   -2.7175 C.3       1 <0>        -0.1835
     20 H5          0.2907    0.2656   -3.1637 H         1 <0>         0.1458
     21 C14         0.9363   -1.7133   -3.7480 C.3       1 <0>         0.0133
     22 C15         0.6586   -2.5430   -6.0057 C.3       1 <0>        -0.0037
     23 C16        -0.1678   -2.3964   -7.2849 C.3       1 <0>        -0.0599
     24 C17         0.3390   -3.3633   -8.3239 C.2       1 <0>        -0.2107
     25 C18         1.2250   -3.0977   -9.2968 C.2       1 <0>         0.0947
     26 N1          1.4449   -4.2204  -10.0469 N.pl3     1 <0>        -0.5865
     27 H6          2.0475   -4.2750  -10.8051 H         1 <0>         0.4231
     28 C19         0.6786   -5.2617   -9.5671 C.ar      1 <0>         0.0612
     29 C20        -0.0469   -4.7692   -8.4673 C.ar      1 <0>        -0.0589
     30 C21        -0.9180   -5.6107   -7.7725 C.ar      1 <0>        -0.1285
     31 C22        -1.0602   -6.9249   -8.1717 C.ar      1 <0>         0.1171
     32 C23        -0.3407   -7.4093   -9.2607 C.ar      1 <0>        -0.1750
     33 C24         0.5210   -6.5881   -9.9535 C.ar      1 <0>        -0.0795
     34 O3         -1.9068   -7.7492   -7.4986 O.3       1 <0>        -0.3177
     35 C25        -2.0071   -9.0965   -7.9641 C.3       1 <0>         0.0252
     36 O4          3.3721   -0.3835   -0.4596 O.3       1 <0>        -0.5433
     37 C26         1.6234    2.2687   -2.4410 C.3       1 <0>        -0.1502
     38 H7          4.4380    1.9531   -2.8354 H         1 <0>         0.0476
     39 H8          5.5891    2.4283   -1.5637 H         1 <0>         0.0595
     40 H9          4.8564    0.8063   -1.5400 H         1 <0>         0.0679
     41 H10         4.8593    2.9080    0.6832 H         1 <0>         0.0659
     42 H11         3.9929    1.3693    0.9145 H         1 <0>         0.0827
     43 H12         2.7419    4.1571    0.9520 H         1 <0>         0.0786
     44 H13         3.0200    3.1131    2.3713 H         1 <0>         0.0778
     45 H14         0.7298    2.4598    1.7905 H         1 <0>         0.1108
     46 H15        -0.5757    1.4065   -1.1016 H         1 <0>         0.0800
     47 H16        -0.6706    1.2312    0.6663 H         1 <0>         0.0927
     48 H17         1.9846   -1.4925   -3.9491 H         1 <0>         0.1463
     49 H18         0.8471   -2.7263   -3.3557 H         1 <0>         0.1390
     50 H19         1.7050   -2.3280   -6.2224 H         1 <0>         0.1324
     51 H20         0.5675   -3.5618   -5.6291 H         1 <0>         0.1328
     52 H21        -1.2141   -2.6114   -7.0682 H         1 <0>         0.0942
     53 H22        -0.0767   -1.3776   -7.6616 H         1 <0>         0.0927
     54 H23         1.6965   -2.1400   -9.4613 H         1 <0>         0.1742
     55 H24        -1.4764   -5.2362   -6.9273 H         1 <0>         0.1277
     56 H25        -0.4596   -8.4386   -9.5653 H         1 <0>         0.1375
     57 H26         1.0739   -6.9743  -10.7970 H         1 <0>         0.1295
     58 H27        -2.3553   -9.0991   -8.9969 H         1 <0>         0.0581
     59 H28        -1.0286   -9.5736   -7.9093 H         1 <0>         0.0573
     60 H29        -2.7139   -9.6445   -7.3410 H         1 <0>         0.1043
     61 H30         3.6414   -1.2986   -0.6182 H         1 <0>         0.3778
     62 H31         0.6197    1.8709   -2.5906 H         1 <0>         0.0511
     63 H32         1.5695    3.3485   -2.3027 H         1 <0>         0.0754
     64 H33         2.2369    2.0443   -3.3136 H         1 <0>         0.0623
     65 N2          0.1564   -1.5938   -4.9944 N.4       1 <0>        -0.5237
     66 H34         0.2413   -0.6368   -5.3565 H         1 <0>         0.4307
     67 H35        -0.8302   -1.7991   -4.7976 H         1 <0>         0.4408
@<TRIPOS>BOND
     1    1    2 1
     2    1   38 1
     3    1   39 1
     4    1   40 1
     5    2    3 1
     6    2    8 1
     7    2    4 1
     8    4    5 1
     9    4   41 1
    10    4   42 1
    11    5    6 1
    12    5   43 1
    13    5   44 1
    14    6    7 2
    15    6   45 1
    16    7   15 1
    17    7    8 1
    18    8    9 1
    19    8   37 1
    20    9   10 1
    21    9   11 1
    22    9   36 1
    23   11   12 1
    24   11   19 1
    25   11   13 1
    26   13   14 1
    27   13   15 1
    28   13   16 1
    29   15   46 1
    30   15   47 1
    31   16   17 1
    32   17   18 2
    33   17   19 1
    34   19   20 1
    35   19   21 1
    36   21   48 1
    37   21   49 1
    38   21   65 1
    39   22   23 1
    40   22   50 1
    41   22   51 1
    42   22   65 1
    43   23   24 1
    44   23   52 1
    45   23   53 1
    46   24   29 1
    47   24   25 2
    48   25   26 1
    49   25   54 1
    50   26   27 1
    51   26   28 1
    52   28   33 ar
    53   28   29 ar
    54   29   30 ar
    55   30   31 ar
    56   30   55 1
    57   31   32 ar
    58   31   34 1
    59   32   33 ar
    60   32   56 1
    61   33   57 1
    62   34   35 1
    63   35   58 1
    64   35   59 1
    65   35   60 1
    66   36   61 1
    67   37   62 1
    68   37   63 1
    69   37   64 1
    70   65   66 1
    71   65   67 1
@<TRIPOS>MOLECULE
ZINC20465480
   67    70     0     0     0
SMALL
USER_CHARGES
(2S,3S,4R,5R)-5-[(cyclohexylamino)methyl]-2-(hydroxymethyl)-4-[4-[3-(trifluoromethyl)phenyl]piperazin-1-yl]tetrahydrofuran-3-ol
@<TRIPOS>ATOM
      1 C1         -1.2599    8.1524   -5.4666 C.ar      1 <0>        -0.0896
      2 C2         -1.1260    9.2063   -4.5811 C.ar      1 <0>        -0.0939
      3 C3         -1.4903    9.0508   -3.2564 C.ar      1 <0>        -0.1543
      4 C4         -1.9889    7.8414   -2.8130 C.ar      1 <0>        -0.0932
      5 C5         -2.1247    6.7810   -3.6996 C.ar      1 <0>         0.1075
      6 C6         -1.7532    6.9392   -5.0290 C.ar      1 <0>        -0.1397
      7 N1         -2.6281    5.5565   -3.2545 N.pl3     1 <0>        -0.4793
      8 C7         -2.6865    4.5809   -4.3519 C.3       1 <0>         0.0526
      9 C8         -3.3158    3.2818   -3.8431 C.3       1 <0>         0.0507
     10 N2         -2.5209    2.7618   -2.7218 N.3       1 <0>        -0.5255
     11 C9         -2.4625    3.7375   -1.6244 C.3       1 <0>         0.0041
     12 C10        -1.8332    5.0365   -2.1332 C.3       1 <0>         0.0579
     13 C11        -3.0503    1.4740   -2.2537 C.3       1 <0>         0.0732
     14 H1         -3.0890    0.8579   -3.1641 H         1 <0>         0.1219
     15 C12        -2.1524    0.8925   -1.1393 C.3       1 <0>         0.0580
     16 H2         -2.0867   -0.2055   -1.1437 H         1 <0>         0.0981
     17 O1         -2.7678    1.3249    0.0937 O.3       1 <0>        -0.3615
     18 C13        -4.1890    1.1827   -0.1201 C.3       1 <0>         0.0570
     19 H3         -4.4752    0.1347    0.0527 H         1 <0>         0.0920
     20 C14        -4.4210    1.6693   -1.5678 C.3       1 <0>         0.0622
     21 H4         -5.2663    1.1895   -2.0829 H         1 <0>         0.0885
     22 O2         -4.7958    3.0482   -1.5814 O.3       1 <0>        -0.5651
     23 C15        -4.9683    2.0549    0.8663 C.3       1 <0>         0.0864
     24 O3         -4.8344    1.5194    2.1844 O.3       1 <0>        -0.6006
     25 C16        -0.7334    1.4534   -1.2516 C.3       1 <0>        -0.0052
     26 N3          0.1391    0.7758   -0.2833 N.4       1 <0>        -0.5421
     27 C17         1.5129    1.2900   -0.3627 C.3       1 <0>         0.0359
     28 C18         2.2717    0.5492   -1.4657 C.3       1 <0>        -0.1384
     29 C19         3.7026    1.0847   -1.5484 C.3       1 <0>        -0.1186
     30 C20         4.4075    0.8651   -0.2083 C.3       1 <0>        -0.1319
     31 C21         3.6487    1.6059    0.8946 C.3       1 <0>        -0.1186
     32 C22         2.2179    1.0704    0.9773 C.3       1 <0>        -0.1402
     33 C23        -1.3426   10.2019   -2.2951 C.3       1 <0>         0.5076
     34 F1         -0.0733   10.1597   -1.7084 F         1 <0>        -0.1761
     35 F2         -1.4973   11.4088   -2.9855 F         1 <0>        -0.1728
     36 F3         -2.3202   10.1060   -1.2989 F         1 <0>        -0.1761
     37 H5         -0.9741    8.2771   -6.5006 H         1 <0>         0.1383
     38 H6         -0.7364   10.1530   -4.9251 H         1 <0>         0.1383
     39 H7         -2.2726    7.7204   -1.7779 H         1 <0>         0.1362
     40 H8         -1.8533    6.1153   -5.7200 H         1 <0>         0.1359
     41 H9         -3.2959    4.9879   -5.1723 H         1 <0>         0.0918
     42 H10        -1.6688    4.3781   -4.7168 H         1 <0>         0.0527
     43 H11        -4.3434    3.4803   -3.5044 H         1 <0>         0.0813
     44 H12        -3.3343    2.5405   -4.6556 H         1 <0>         0.0804
     45 H13        -3.4802    3.9403   -1.2596 H         1 <0>         0.1275
     46 H14        -1.8532    3.3305   -0.8040 H         1 <0>         0.0777
     47 H15        -0.8057    4.8389   -2.4727 H         1 <0>         0.0421
     48 H16        -1.8148    5.7787   -1.3215 H         1 <0>         0.0852
     49 H17        -5.7489    3.3636   -1.1317 H         1 <0>         0.4070
     50 H18        -4.5689    3.0796    0.8445 H         1 <0>         0.0606
     51 H19        -6.0310    2.0695    0.5826 H         1 <0>         0.0595
     52 H20        -5.3291    2.0155    3.0325 H         1 <0>         0.4231
     53 H21        -0.3520    1.2848   -2.2695 H         1 <0>         0.1454
     54 H22        -0.7479    2.5327   -1.0396 H         1 <0>         0.1511
     55 H23        -0.2423    0.9444    0.7346 H         1 <0>         0.4528
     56 H24         1.4474    2.3636   -0.5931 H         1 <0>         0.1302
     57 H25         2.2954   -0.5262   -1.2358 H         1 <0>         0.0871
     58 H26         1.7648    0.7071   -2.4291 H         1 <0>         0.0844
     59 H27         4.2481    0.5521   -2.3413 H         1 <0>         0.0838
     60 H28         3.6789    2.1601   -1.7784 H         1 <0>         0.0735
     61 H29         4.4311   -0.2103    0.0217 H         1 <0>         0.0702
     62 H30         5.4362    1.2500   -0.2677 H         1 <0>         0.0790
     63 H31         4.1556    1.4480    1.8580 H         1 <0>         0.0846
     64 H32         3.6250    2.6813    0.6647 H         1 <0>         0.0738
     65 H33         1.6723    1.6030    1.7702 H         1 <0>         0.0870
     66 H34         2.2416   -0.0050    1.2073 H         1 <0>         0.0876
     67 H35         0.1536   -0.3035   -0.4953 H         1 <0>         0.4412
@<TRIPOS>BOND
     1    1    6 ar
     2    1    2 ar
     3    1   37 1
     4    2    3 ar
     5    2   38 1
     6    3    4 ar
     7    3   33 1
     8    4    5 ar
     9    4   39 1
    10    5    6 ar
    11    5    7 1
    12    6   40 1
    13    7   12 1
    14    7    8 1
    15    8    9 1
    16    8   41 1
    17    8   42 1
    18    9   10 1
    19    9   43 1
    20    9   44 1
    21   10   11 1
    22   10   13 1
    23   11   12 1
    24   11   45 1
    25   11   46 1
    26   12   47 1
    27   12   48 1
    28   13   14 1
    29   13   20 1
    30   13   15 1
    31   15   16 1
    32   15   17 1
    33   15   25 1
    34   17   18 1
    35   18   19 1
    36   18   20 1
    37   18   23 1
    38   20   21 1
    39   20   22 1
    40   22   49 1
    41   23   24 1
    42   23   50 1
    43   23   51 1
    44   24   52 1
    45   25   26 1
    46   25   53 1
    47   25   54 1
    48   26   27 1
    49   26   55 1
    50   26   67 1
    51   27   32 1
    52   27   28 1
    53   27   56 1
    54   28   29 1
    55   28   57 1
    56   28   58 1
    57   29   30 1
    58   29   59 1
    59   29   60 1
    60   30   31 1
    61   30   61 1
    62   30   62 1
    63   31   32 1
    64   31   63 1
    65   31   64 1
    66   32   65 1
    67   32   66 1
    68   33   34 1
    69   33   35 1
    70   33   36 1
@<TRIPOS>MOLECULE
ZINC39598931
   70    74     0     0     0
SMALL
USER_CHARGES

@<TRIPOS>ATOM
      1 C1         -2.1452    0.4610    0.6258 C.3       1 <0>        -0.1187
      2 C2         -1.0207   -0.4892    0.3038 C.ar      1 <0>        -0.0323
      3 C3         -1.0600   -1.2403   -0.8530 C.ar      1 <0>        -0.1203
      4 C4         -0.0285   -2.1130   -1.1501 C.ar      1 <0>        -0.0872
      5 C5          1.0486   -2.2389   -0.2906 C.ar      1 <0>        -0.1272
      6 C6          1.1005   -1.4936    0.8689 C.ar      1 <0>        -0.0902
      7 C7          0.0655   -0.6072    1.1720 C.ar      1 <0>        -0.1388
      8 C8          0.1172    0.1991    2.4102 C.2       1 <0>         0.5943
      9 O1         -0.0242    1.4052    2.3565 O.2       1 <0>        -0.5206
     10 N1          0.3210   -0.4032    3.5986 N.am      1 <0>        -0.6192
     11 C9          0.6012   -1.8357    3.8546 C.3       1 <0>         0.1046
     12 C10         1.6559   -1.8315    4.9838 C.3       1 <0>        -0.1139
     13 H1          2.6601   -1.8990    4.5655 H         1 <0>         0.1104
     14 C11         1.4622   -0.4825    5.6965 C.3       1 <0>        -0.0711
     15 C12         0.3220    0.2188    4.9443 C.3       1 <0>         0.1077
     16 C13         2.7369    0.3509    5.6058 C.3       1 <0>        -0.1343
     17 C14         2.5388    1.6628    6.3702 C.3       1 <0>        -0.0111
     18 N2          2.2201    1.3705    7.7730 N.4       1 <0>        -0.5043
     19 C15         0.9447    0.6489    7.8570 C.3       1 <0>        -0.0080
     20 C16         1.0752   -0.7059    7.1552 C.3       1 <0>        -0.1460
     21 C17         1.4081   -2.9717    5.9375 C.2       1 <0>         0.5184
     22 O2          0.2734   -3.3289    6.1739 O.2       1 <0>        -0.5206
     23 N3          2.4474   -3.5946    6.5276 N.am      1 <0>        -0.7268
     24 C18         2.2066   -4.7031    7.4547 C.3       1 <0>         0.1202
     25 C19         3.5442   -5.2287    7.9797 C.3       1 <0>        -0.0483
     26 C20         3.2964   -6.3690    8.9333 C.2       1 <0>        -0.1874
     27 C21         3.1046   -7.7769    8.5767 C.ar      1 <0>        -0.0604
     28 C22         3.0864   -8.4766    7.3685 C.ar      1 <0>        -0.1172
     29 C23         2.8749   -9.8411    7.3737 C.ar      1 <0>         0.1080
     30 C24         2.6807  -10.5166    8.5755 C.ar      1 <0>        -0.1756
     31 C25         2.6962   -9.8364    9.7729 C.ar      1 <0>        -0.0862
     32 C26         2.9082   -8.4622    9.7892 C.ar      1 <0>         0.0636
     33 N4          2.9780   -7.5268   10.8000 N.pl3     1 <0>        -0.5925
     34 C27         3.2154   -6.2878   10.2708 C.2       1 <0>         0.0743
     35 O3          2.8556  -10.5278    6.2000 O.3       1 <0>        -0.3186
     36 C28         2.6319  -11.9371    6.2766 C.3       1 <0>         0.0266
     37 H2         -1.8874    1.4607    0.2762 H         1 <0>         0.0829
     38 H3         -3.0566    0.1266    0.1302 H         1 <0>         0.0726
     39 H4         -2.3049    0.4829    1.7038 H         1 <0>         0.0632
     40 H5         -1.8980   -1.1470   -1.5278 H         1 <0>         0.1338
     41 H6         -0.0643   -2.6989   -2.0566 H         1 <0>         0.1321
     42 H7          1.8503   -2.9226   -0.5279 H         1 <0>         0.1316
     43 H8          1.9417   -1.5927    1.5389 H         1 <0>         0.1247
     44 H9         -0.3039   -2.3474    4.1818 H         1 <0>         0.0993
     45 H10         1.0045   -2.3099    2.9598 H         1 <0>         0.0992
     46 H11         0.5184    1.2883    4.8689 H         1 <0>         0.0898
     47 H12        -0.6286    0.0402    5.4467 H         1 <0>         0.0853
     48 H13         3.5664   -0.2040    6.0441 H         1 <0>         0.0969
     49 H14         2.9559    0.5683    4.5604 H         1 <0>         0.1177
     50 H15         3.4537    2.2534    6.3211 H         1 <0>         0.1397
     51 H16         1.7198    2.2246    5.9211 H         1 <0>         0.1341
     52 H17         2.9530    0.8031    8.1718 H         1 <0>         0.4274
     53 H18         0.6846    0.4920    8.9038 H         1 <0>         0.1389
     54 H19         0.1634    1.2348    7.3729 H         1 <0>         0.1330
     55 H20         0.1225   -1.2333    7.2023 H         1 <0>         0.1287
     56 H21         1.8449   -1.2989    7.6492 H         1 <0>         0.0963
     57 H22         3.3549   -3.3090    6.3385 H         1 <0>         0.4005
     58 H23         1.6007   -4.3528    8.2903 H         1 <0>         0.0704
     59 H24         1.6804   -5.5038    6.9348 H         1 <0>         0.0755
     60 H25         4.1501   -5.5790    7.1441 H         1 <0>         0.0784
     61 H26         4.0703   -4.4281    8.4995 H         1 <0>         0.0731
     62 H27         3.2365   -7.9537    6.4356 H         1 <0>         0.1282
     63 H28         2.5161  -11.5840    8.5686 H         1 <0>         0.1345
     64 H29         2.5438  -10.3703   10.6993 H         1 <0>         0.1262
     65 H30         3.3198   -5.3784   10.8441 H         1 <0>         0.1688
     66 H31         2.8778   -7.7192   11.7454 H         1 <0>         0.4187
     67 H32         2.6407  -12.3615    5.2727 H         1 <0>         0.1017
     68 H33         3.4193  -12.3981    6.8729 H         1 <0>         0.0559
     69 H34         1.6650  -12.1267    6.7427 H         1 <0>         0.0557
     70 H35         2.1502    2.2355    8.2878 H         1 <0>         0.4339
@<TRIPOS>BOND
     1    1    2 1
     2    1   37 1
     3    1   38 1
     4    1   39 1
     5    2    7 ar
     6    2    3 ar
     7    3    4 ar
     8    3   40 1
     9    4    5 ar
    10    4   41 1
    11    5    6 ar
    12    5   42 1
    13    6    7 ar
    14    6   43 1
    15    7    8 1
    16    8    9 2
    17    8   10 am
    18   10   15 1
    19   10   11 1
    20   11   12 1
    21   11   44 1
    22   11   45 1
    23   12   13 1
    24   12   14 1
    25   12   21 1
    26   14   20 1
    27   14   15 1
    28   14   16 1
    29   15   46 1
    30   15   47 1
    31   16   17 1
    32   16   48 1
    33   16   49 1
    34   17   18 1
    35   17   50 1
    36   17   51 1
    37   18   19 1
    38   18   52 1
    39   18   70 1
    40   19   20 1
    41   19   53 1
    42   19   54 1
    43   20   55 1
    44   20   56 1
    45   21   22 2
    46   21   23 am
    47   23   24 1
    48   23   57 1
    49   24   25 1
    50   24   58 1
    51   24   59 1
    52   25   60 1
    53   25   61 1
    54   25   26 1
    55   26   27 1
    56   26   34 2
    57   27   28 ar
    58   27   32 ar
    59   28   29 ar
    60   28   62 1
    61   29   30 ar
    62   29   35 1
    63   30   31 ar
    64   30   63 1
    65   31   32 ar
    66   31   64 1
    67   32   33 1
    68   33   66 1
    69   33   34 1
    70   34   65 1
    71   35   36 1
    72   36   67 1
    73   36   68 1
    74   36   69 1
@<TRIPOS>MOLECULE
ZINC39674035
   74    78     0     0     0
SMALL
USER_CHARGES

@<TRIPOS>ATOM
      1 C1         -5.3128    3.5527   -2.9125 C.3       1 <0>        -0.1007
      2 C2         -4.8517    4.9741   -2.7175 C.2       1 <0>         0.1003
      3 H1         -3.7892    5.3524   -4.4685 H         1 <0>         0.4177
      4 C3         -5.1105    5.7266   -1.6364 C.2       1 <0>        -0.1855
      5 C4         -4.4804    7.0299   -1.8609 C.ar      1 <0>        -0.0961
      6 C5         -4.3969    8.2083   -1.1173 C.ar      1 <0>        -0.0786
      7 C6         -3.7147    9.2806   -1.6197 C.ar      1 <0>        -0.1415
      8 C7         -3.1038    9.2076   -2.8637 C.ar      1 <0>        -0.0993
      9 C8         -3.1738    8.0543   -3.6144 C.ar      1 <0>        -0.1239
     10 C9         -3.8628    6.9508   -3.1227 C.ar      1 <0>         0.0965
     11 N1         -4.1025    5.6868   -3.6136 N.pl3     1 <0>        -0.5902
     12 C10        -5.9001    5.3100   -0.4223 C.3       1 <0>        -0.0455
     13 C11        -4.9573    4.6909    0.6115 C.3       1 <0>         0.1214
     14 N2         -5.7250    4.2858    1.7917 N.am      1 <0>        -0.7327
     15 C12        -5.0990    3.7127    2.8387 C.2       1 <0>         0.5116
     16 O1         -3.9002    3.5323    2.8037 O.2       1 <0>        -0.5082
     17 C13        -5.8886    3.2961    4.0527 C.3       1 <0>        -0.1145
     18 H2         -6.8818    2.9554    3.7600 H         1 <0>         0.1175
     19 C14        -5.1435    2.1831    4.8232 C.3       1 <0>         0.1195
     20 N3         -4.3818    2.9001    5.8729 N.am      1 <0>        -0.6142
     21 C15        -5.3033    3.9661    6.3339 C.3       1 <0>         0.0937
     22 C16        -5.9948    4.4630    5.0488 C.3       1 <0>        -0.0747
     23 C17        -7.4591    4.7875    5.3285 C.3       1 <0>        -0.1343
     24 C18        -7.5393    5.9882    6.2755 C.3       1 <0>        -0.0102
     25 N4         -6.8697    7.1422    5.6634 N.4       1 <0>        -0.5046
     26 C19        -5.4415    6.8549    5.4835 C.3       1 <0>        -0.0095
     27 C20        -5.2726    5.6910    4.5029 C.3       1 <0>        -0.1475
     28 C21        -3.1335    2.6412    6.3101 C.2       1 <0>         0.5838
     29 O2         -2.4521    1.8083    5.7449 O.2       1 <0>        -0.5092
     30 C22        -2.5929    3.3704    7.4773 C.ar      1 <0>        -0.0821
     31 C23        -3.4603    3.9823    8.3841 C.ar      1 <0>        -0.1737
     32 C24        -2.9535    4.6622    9.4725 C.ar      1 <0>        -0.0774
     33 C25        -1.5874    4.7409    9.6695 C.ar      1 <0>        -0.1757
     34 C26        -0.7153    4.1353    8.7727 C.ar      1 <0>         0.2175
     35 C27        -1.2150    3.4443    7.6791 C.ar      1 <0>        -0.1392
     36 N5          0.6645    4.2180    8.9760 N.pl3     1 <0>        -0.6329
     37 C28         1.1921    4.9432   10.1344 C.3       1 <0>         0.0887
     38 C29         1.5837    3.5796    8.0306 C.3       1 <0>         0.0856
     39 H3         -6.2862    3.5505   -3.4029 H         1 <0>         0.0818
     40 H4         -4.5924    3.0189   -3.5325 H         1 <0>         0.0730
     41 H5         -5.3931    3.0605   -1.9433 H         1 <0>         0.0843
     42 H6         -4.8701    8.2725   -0.1486 H         1 <0>         0.1142
     43 H7         -3.6507   10.1922   -1.0441 H         1 <0>         0.1217
     44 H8         -2.5686   10.0636   -3.2475 H         1 <0>         0.1275
     45 H9         -2.6954    8.0075   -4.5816 H         1 <0>         0.1223
     46 H10        -6.3902    6.1826    0.0094 H         1 <0>         0.0723
     47 H11        -6.6529    4.5770   -0.7125 H         1 <0>         0.0760
     48 H12        -4.4673    3.8182    0.1798 H         1 <0>         0.0709
     49 H13        -4.2046    5.4239    0.9017 H         1 <0>         0.0704
     50 H14        -6.6838    4.4302    1.8197 H         1 <0>         0.3973
     51 H15        -5.8550    1.4920    5.2750 H         1 <0>         0.0874
     52 H16        -4.4643    1.6498    4.1581 H         1 <0>         0.1026
     53 H17        -6.0390    3.5592    7.0277 H         1 <0>         0.0878
     54 H18        -4.7441    4.7758    6.8028 H         1 <0>         0.0967
     55 H19        -7.9637    5.0279    4.3927 H         1 <0>         0.0979
     56 H20        -7.9407    3.9262    5.7914 H         1 <0>         0.1224
     57 H21        -8.5846    6.2328    6.4639 H         1 <0>         0.1401
     58 H22        -7.0490    5.7413    7.2172 H         1 <0>         0.1328
     59 H23        -7.2883    7.3352    4.7659 H         1 <0>         0.4281
     60 H24        -4.9404    7.7385    5.0881 H         1 <0>         0.1385
     61 H25        -5.0011    6.5873    6.4440 H         1 <0>         0.1336
     62 H26        -4.2126    5.4666    4.3837 H         1 <0>         0.1216
     63 H27        -5.6981    5.9641    3.5373 H         1 <0>         0.0982
     64 H28        -4.5282    3.9238    8.2334 H         1 <0>         0.1266
     65 H29        -3.6263    5.1349   10.1727 H         1 <0>         0.1270
     66 H30        -1.1966    5.2751   10.5229 H         1 <0>         0.1293
     67 H31        -0.5392    2.9691    6.9834 H         1 <0>         0.1364
     68 H32         1.2930    4.2586   10.9765 H         1 <0>         0.0542
     69 H33         2.1677    5.3618    9.8874 H         1 <0>         0.0724
     70 H34         0.5080    5.7488   10.4011 H         1 <0>         0.0696
     71 H35         1.8415    4.2857    7.2414 H         1 <0>         0.0536
     72 H36         2.4892    3.2737    8.5546 H         1 <0>         0.0734
     73 H37         1.1042    2.7042    7.5925 H         1 <0>         0.0723
     74 H38        -6.9767    7.9477    6.2617 H         1 <0>         0.4338
@<TRIPOS>BOND
     1    1   39 1
     2    1   40 1
     3    1   41 1
     4    1    2 1
     5    2    4 2
     6    2   11 1
     7    3   11 1
     8    4    5 1
     9    4   12 1
    10    5    6 ar
    11    5   10 ar
    12    6    7 ar
    13    6   42 1
    14    7    8 ar
    15    7   43 1
    16    8    9 ar
    17    8   44 1
    18    9   10 ar
    19    9   45 1
    20   10   11 1
    21   12   13 1
    22   12   46 1
    23   12   47 1
    24   13   14 1
    25   13   48 1
    26   13   49 1
    27   14   15 am
    28   14   50 1
    29   15   16 2
    30   15   17 1
    31   17   18 1
    32   17   22 1
    33   17   19 1
    34   19   20 1
    35   19   51 1
    36   19   52 1
    37   20   21 1
    38   20   28 am
    39   21   22 1
    40   21   53 1
    41   21   54 1
    42   22   27 1
    43   22   23 1
    44   23   24 1
    45   23   55 1
    46   23   56 1
    47   24   25 1
    48   24   57 1
    49   24   58 1
    50   25   26 1
    51   25   59 1
    52   25   74 1
    53   26   27 1
    54   26   60 1
    55   26   61 1
    56   27   62 1
    57   27   63 1
    58   28   29 2
    59   28   30 1
    60   30   35 ar
    61   30   31 ar
    62   31   32 ar
    63   31   64 1
    64   32   33 ar
    65   32   65 1
    66   33   34 ar
    67   33   66 1
    68   34   35 ar
    69   34   36 1
    70   35   67 1
    71   36   37 1
    72   36   38 1
    73   37   68 1
    74   37   69 1
    75   37   70 1
    76   38   71 1
    77   38   72 1
    78   38   73 1
@<TRIPOS>MOLECULE
ZINC43193649
   66    69     0     0     0
SMALL
USER_CHARGES

@<TRIPOS>ATOM
      1 C1         -0.0173    1.4248    0.0099 C.3       1 <0>         0.0200
      2 O1          0.0021   -0.0041    0.0020 O.3       1 <0>        -0.2915
      3 C2         -1.2011   -0.6379    0.0101 C.ar      1 <0>         0.1837
      4 C3         -2.3744    0.0987    0.0195 C.ar      1 <0>        -0.2378
      5 C4         -3.5997   -0.5522    0.0288 C.ar      1 <0>         0.2587
      6 C5         -3.6560   -1.9388    0.0299 C.ar      1 <0>        -0.2661
      7 C6         -2.4825   -2.6731    0.0185 C.ar      1 <0>        -0.1390
      8 C7         -1.2575   -2.0281    0.0032 C.ar      1 <0>         0.0791
      9 O2         -0.1070   -2.7549   -0.0136 O.3       1 <0>        -0.2945
     10 C8         -0.2385   -4.1778   -0.0199 C.3       1 <0>         0.0620
     11 C9          1.1509   -4.8183   -0.0389 C.3       1 <0>        -0.1202
     12 C10         1.0101   -6.3418   -0.0456 C.3       1 <0>         0.0608
     13 N1          2.3441   -6.9567   -0.0639 N.3       1 <0>        -0.5363
     14 C11         3.0669   -6.6844    1.1870 C.3       1 <0>         0.0133
     15 C12         4.4701   -7.2907    1.1016 C.3       1 <0>         0.0613
     16 O3          4.3632   -8.6912    0.8319 O.3       1 <0>        -0.3829
     17 C13         3.6653   -8.9926   -0.3794 C.3       1 <0>         0.0614
     18 C14         2.2540   -8.4035   -0.3091 C.3       1 <0>         0.0183
     19 C15        -4.9796   -2.6572    0.0476 C.3       1 <0>         0.2726
     20 H1         -5.1983   -2.9846    1.0640 H         1 <0>         0.1562
     21 N2         -6.0512   -1.7693   -0.4171 N.3       1 <0>        -0.6864
     22 C16        -6.0454   -0.5037    0.3357 C.3       1 <0>         0.2949
     23 N3         -4.7868    0.1955    0.0352 N.pl3     1 <0>        -0.7724
     24 N4         -4.9080   -3.8290   -0.8353 N.4       1 <0>        -0.5050
     25 C17        -6.1546   -4.5989   -0.7292 C.3       1 <0>         0.0297
     26 H2         -7.0030   -3.9475   -0.9394 H         1 <0>         0.1575
     27 C18        -6.2852   -5.1657    0.6859 C.3       1 <0>        -0.1443
     28 C19        -7.5835   -5.9676    0.7964 C.3       1 <0>        -0.1398
     29 C20        -7.5606   -7.1169   -0.2133 C.3       1 <0>         0.0830
     30 H3         -8.4856   -7.6882   -0.1346 H         1 <0>         0.1113
     31 C21        -7.4301   -6.5501   -1.6284 C.3       1 <0>        -0.0349
     32 H4         -8.2784   -5.8987   -1.8386 H         1 <0>         0.1291
     33 C22        -6.1317   -5.7483   -1.7389 C.3       1 <0>        -0.1525
     34 Cl1        -7.4031   -7.9045   -2.8182 Cl        1 <0>        -0.1270
     35 F1         -6.4718   -7.9530    0.0564 F         1 <0>        -0.1945
     36 H5          1.0053    1.8021    0.0021 H         1 <0>         0.1125
     37 H6         -0.5445    1.7859   -0.8732 H         1 <0>         0.0617
     38 H7         -0.5275    1.7763    0.9067 H         1 <0>         0.0625
     39 H8         -2.3353    1.1780    0.0200 H         1 <0>         0.1489
     40 H9         -2.5228   -3.7524    0.0170 H         1 <0>         0.1291
     41 H10        -0.7736   -4.4971    0.8744 H         1 <0>         0.0606
     42 H11        -0.7935   -4.4875   -0.9054 H         1 <0>         0.0587
     43 H12         1.6860   -4.4989   -0.9332 H         1 <0>         0.0884
     44 H13         1.7059   -4.5086    0.8466 H         1 <0>         0.0796
     45 H14         0.4750   -6.6611    0.8487 H         1 <0>         0.0377
     46 H15         0.4551   -6.6515   -0.9311 H         1 <0>         0.0779
     47 H16         3.1442   -5.6073    1.3356 H         1 <0>         0.0899
     48 H17         2.5281   -7.1301    2.0232 H         1 <0>         0.0449
     49 H18         5.0274   -6.8071    0.2994 H         1 <0>         0.0623
     50 H19         4.9895   -7.1410    2.0481 H         1 <0>         0.1012
     51 H20         4.1992   -8.5584   -1.2248 H         1 <0>         0.0622
     52 H21         3.6027  -10.0736   -0.5041 H         1 <0>         0.1015
     53 H22         1.7021   -8.8766    0.5032 H         1 <0>         0.0448
     54 H23         1.7379   -8.5813   -1.2525 H         1 <0>         0.0874
     55 H24        -5.9762   -1.6003   -1.4090 H         1 <0>         0.3612
     56 H25        -6.8913    0.1116    0.0291 H         1 <0>         0.1222
     57 H26        -6.1067   -0.7099    1.4042 H         1 <0>         0.0938
     58 H27        -4.7778    1.1469   -0.1535 H         1 <0>         0.4160
     59 H28        -4.7809   -3.5245   -1.7888 H         1 <0>         0.4271
     60 H29        -5.4368   -5.8171    0.8960 H         1 <0>         0.0942
     61 H30        -6.3015   -4.3469    1.4052 H         1 <0>         0.0994
     62 H31        -7.6765   -6.3714    1.8045 H         1 <0>         0.1069
     63 H32        -8.4318   -5.3162    0.5862 H         1 <0>         0.1006
     64 H33        -6.0388   -5.3444   -2.7471 H         1 <0>         0.1059
     65 H34        -5.2834   -6.3996   -1.5287 H         1 <0>         0.1045
     66 H35        -4.1298   -4.4097   -0.5611 H         1 <0>         0.4286
@<TRIPOS>BOND
     1    1    2 1
     2    1   36 1
     3    1   37 1
     4    1   38 1
     5    2    3 1
     6    3    8 ar
     7    3    4 ar
     8    4    5 ar
     9    4   39 1
    10    5   23 1
    11    5    6 ar
    12    6    7 ar
    13    6   19 1
    14    7    8 ar
    15    7   40 1
    16    8    9 1
    17    9   10 1
    18   10   11 1
    19   10   41 1
    20   10   42 1
    21   11   12 1
    22   11   43 1
    23   11   44 1
    24   12   13 1
    25   12   45 1
    26   12   46 1
    27   13   18 1
    28   13   14 1
    29   14   15 1
    30   14   47 1
    31   14   48 1
    32   15   16 1
    33   15   49 1
    34   15   50 1
    35   16   17 1
    36   17   18 1
    37   17   51 1
    38   17   52 1
    39   18   53 1
    40   18   54 1
    41   19   20 1
    42   19   21 1
    43   19   24 1
    44   21   22 1
    45   21   55 1
    46   22   23 1
    47   22   56 1
    48   22   57 1
    49   23   58 1
    50   24   25 1
    51   24   59 1
    52   24   66 1
    53   25   26 1
    54   25   33 1
    55   25   27 1
    56   27   28 1
    57   27   60 1
    58   27   61 1
    59   28   29 1
    60   28   62 1
    61   28   63 1
    62   29   30 1
    63   29   31 1
    64   29   35 1
    65   31   32 1
    66   31   33 1
    67   31   34 1
    68   33   64 1
    69   33   65 1
@<TRIPOS>MOLECULE
ZINC07158376
   61    62     0     0     0
SMALL
USER_CHARGES
N-(2-chloro-5-pyrrolidin-1-ylsulfonyl-phenyl)-2-(3-dimethylamino-2,2-dimethyl-propyl)amino-acetamide
@<TRIPOS>ATOM
      1 C1         -6.9737   -4.6305    0.8365 C.3       1 <0>        -0.1895
      2 C2         -6.2959   -4.8040    2.1971 C.3       1 <0>        -0.1127
      3 C3         -4.9174   -5.4389    2.0030 C.3       1 <0>        -0.2025
      4 C4         -6.1381   -3.4371    2.8663 C.3       1 <0>         0.0068
      5 C5         -5.1407   -1.2438    2.6282 C.3       1 <0>        -0.0235
      6 C6         -4.2919   -0.3820    1.7293 C.2       1 <0>         0.4937
      7 O1         -3.8726   -0.8270    0.6818 O.2       1 <0>        -0.5020
      8 N1         -3.9987    0.8833    2.0894 N.am      1 <0>        -0.6367
      9 C7         -3.3002    1.7176    1.2088 C.ar      1 <0>         0.1089
     10 C8         -3.3397    1.4756   -0.1579 C.ar      1 <0>        -0.0155
     11 C9         -2.6498    2.3008   -1.0243 C.ar      1 <0>        -0.6584
     12 C10        -1.9152    3.3641   -0.5320 C.ar      1 <0>        -0.0032
     13 C11        -1.8778    3.6119    0.8277 C.ar      1 <0>        -0.1020
     14 C12        -2.5659    2.7900    1.7004 C.ar      1 <0>        -0.0057
     15 Cl1        -2.5135    3.0975    3.4082 Cl        1 <0>        -0.0352
     16 S1         -2.6997    1.9941   -2.7587 S.o2      1 <0>         2.7076
     17 O2         -3.0063    0.6158   -2.9187 O.2       1 <0>        -0.9463
     18 O3         -1.5296    2.5832   -3.3091 O.2       1 <0>        -0.9350
     19 N2         -3.9868    2.8391   -3.3684 N.pl3     1 <0>        -1.0103
     20 C13        -5.3597    2.3305   -3.5026 C.3       1 <0>         0.1206
     21 C14        -6.2047    3.4543   -4.1384 C.3       1 <0>        -0.1307
     22 C15        -5.1385    4.3253   -4.8540 C.3       1 <0>        -0.1307
     23 C16        -3.9443    4.2238   -3.8726 C.3       1 <0>         0.1091
     24 C17        -7.1543   -5.7094    3.0828 C.3       1 <0>         0.0037
     25 C18        -6.0756   -7.8734    2.9554 C.3       1 <0>        -0.0702
     26 C19        -8.4868   -7.7118    2.8050 C.3       1 <0>        -0.0463
     27 H1         -6.3621   -3.9854    0.2056 H         1 <0>         0.0857
     28 H2         -7.0860   -5.6042    0.3597 H         1 <0>         0.0836
     29 H3         -7.9557   -4.1781    0.9748 H         1 <0>         0.0962
     30 H4         -4.4474   -5.5911    2.9746 H         1 <0>         0.0971
     31 H5         -5.0273   -6.3987    1.4982 H         1 <0>         0.0923
     32 H6         -4.2955   -4.7792    1.3979 H         1 <0>         0.0852
     33 H7         -5.6553   -3.5607    3.8357 H         1 <0>         0.1493
     34 H8         -7.1201   -2.9848    3.0046 H         1 <0>         0.1503
     35 H9         -4.6509   -1.3522    3.5959 H         1 <0>         0.1713
     36 H10        -6.1158   -0.7762    2.7648 H         1 <0>         0.1726
     37 H11        -4.2718    1.2158    2.9587 H         1 <0>         0.4247
     38 H12        -3.9092    0.6427   -0.5430 H         1 <0>         0.1685
     39 H13        -1.3731    4.0050   -1.2116 H         1 <0>         0.1615
     40 H14        -1.3068    4.4457    1.2087 H         1 <0>         0.1606
     41 H15        -5.3676    1.4496   -4.1446 H         1 <0>         0.0758
     42 H16        -5.7596    2.0793   -2.5202 H         1 <0>         0.0592
     43 H17        -6.7238    4.0314   -3.3733 H         1 <0>         0.0778
     44 H18        -6.9119    3.0418   -4.8580 H         1 <0>         0.0861
     45 H19        -5.4778    5.3566   -4.9513 H         1 <0>         0.0904
     46 H20        -4.8813    3.9069   -5.8271 H         1 <0>         0.0820
     47 H21        -4.0667    4.9303   -3.0517 H         1 <0>         0.0718
     48 H22        -3.0062    4.4082   -4.3963 H         1 <0>         0.0906
     49 H23        -6.7171   -5.7625    4.0798 H         1 <0>         0.1452
     50 H24        -8.1630   -5.3017    3.1495 H         1 <0>         0.1443
     51 H25        -6.1712   -8.0624    4.0246 H         1 <0>         0.1310
     52 H26        -6.0718   -8.8215    2.4177 H         1 <0>         0.1303
     53 H27        -5.1435   -7.3424    2.7622 H         1 <0>         0.1333
     54 H28        -9.3054   -7.1203    2.3949 H         1 <0>         0.1253
     55 H29        -8.5001   -8.7073    2.3613 H         1 <0>         0.1304
     56 H30        -8.6037   -7.7940    3.8856 H         1 <0>         0.1296
     57 N3         -5.3098   -2.5707    2.0066 N.4       1 <0>        -0.5102
     58 H31        -5.7680   -2.4614    1.0942 H         1 <0>         0.4422
     59 H32        -4.3880   -3.0040    1.8770 H         1 <0>         0.4421
     60 N4         -7.2062   -7.0538    2.4708 N.4       1 <0>        -0.3976
     61 H33        -7.1362   -6.9589    1.4508 H         1 <0>         0.4275
@<TRIPOS>BOND
     1    1    2 1
     2    1   27 1
     3    1   28 1
     4    1   29 1
     5    2    3 1
     6    2    4 1
     7    2   24 1
     8    3   30 1
     9    3   31 1
    10    3   32 1
    11    4   33 1
    12    4   34 1
    13    4   57 1
    14    5    6 1
    15    5   35 1
    16    5   36 1
    17    5   57 1
    18    6    7 2
    19    6    8 am
    20    8    9 1
    21    8   37 1
    22    9   14 ar
    23    9   10 ar
    24   10   11 ar
    25   10   38 1
    26   11   12 ar
    27   11   16 1
    28   12   13 ar
    29   12   39 1
    30   13   14 ar
    31   13   40 1
    32   14   15 1
    33   16   17 2
    34   16   18 2
    35   16   19 1
    36   19   23 1
    37   19   20 1
    38   20   21 1
    39   20   41 1
    40   20   42 1
    41   21   22 1
    42   21   43 1
    43   21   44 1
    44   22   23 1
    45   22   45 1
    46   22   46 1
    47   23   47 1
    48   23   48 1
    49   24   49 1
    50   24   50 1
    51   24   60 1
    52   25   51 1
    53   25   52 1
    54   25   53 1
    55   25   60 1
    56   26   54 1
    57   26   55 1
    58   26   56 1
    59   26   60 1
    60   57   58 1
    61   57   59 1
    62   60   61 1
@<TRIPOS>MOLECULE
ZINC35838999
   75    78     0     0     0
SMALL
USER_CHARGES

@<TRIPOS>ATOM
      1 C1         -0.2224    0.5412   -0.3553 C.2       1 <0>         0.0728
      2 C2          0.9906    1.1507   -0.2589 C.2       1 <0>        -0.0647
      3 N1          1.9308    0.1676   -0.2261 N.2       1 <0>        -0.4074
      4 C3          1.3281   -0.9812   -0.2983 C.2       1 <0>         0.1056
      5 O1          0.0050   -0.7817   -0.3786 O.3       1 <0>        -0.1812
      6 C4          2.0091   -2.3256   -0.2931 C.3       1 <0>         0.1107
      7 N2          2.1410   -2.8024    1.0901 N.4       1 <0>        -0.3898
      8 C5          3.0384   -1.9075    1.8327 C.3       1 <0>        -0.0058
      9 C6          3.1612   -2.3930    3.2787 C.3       1 <0>         0.0257
     10 N3          3.6902   -3.7642    3.2888 N.3       1 <0>        -0.5281
     11 C7          2.8149   -4.6670    2.5279 C.3       1 <0>         0.0281
     12 C8          2.6949   -4.1627    1.0881 C.3       1 <0>        -0.0025
     13 C9          3.8764   -4.2465    4.6638 C.3       1 <0>         0.0221
     14 C10         5.1267   -3.6018    5.2655 C.3       1 <0>         0.0885
     15 H1          5.0077   -2.5184    5.2757 H         1 <0>         0.1209
     16 C11         5.3226   -4.1069    6.6964 C.3       1 <0>        -0.0482
     17 N4          6.5158   -3.4781    7.2785 N.4       1 <0>        -0.3778
     18 C12         6.7869   -4.0707    8.5938 C.3       1 <0>        -0.0072
     19 C13         8.0745   -3.4771    9.1692 C.3       1 <0>        -0.1474
     20 C14         7.9111   -1.9614    9.3144 C.3       1 <0>        -0.1409
     21 C15         7.5553   -1.3633    7.9503 C.3       1 <0>        -0.1458
     22 C16         6.2869   -2.0352    7.4200 C.3       1 <0>        -0.0098
     23 O2          6.2674   -3.9483    4.4776 O.3       1 <0>        -0.5388
     24 C17         1.2392    2.6026   -0.2018 C.2       1 <0>         0.5921
     25 O3          0.3059    3.3813   -0.2403 O.2       1 <0>        -0.5146
     26 N5          2.5009    3.0671   -0.1068 N.am      1 <0>        -0.7062
     27 C18         2.7479    4.5100   -0.0500 C.3       1 <0>         0.1177
     28 C19         4.2527    4.7660    0.0548 C.3       1 <0>        -0.0951
     29 C20         4.9418    4.2874   -1.2246 C.3       1 <0>        -0.1159
     30 C21         6.4466    4.5434   -1.1198 C.3       1 <0>        -0.1184
     31 C22         6.6974    6.0414   -0.9351 C.3       1 <0>        -0.1251
     32 C23         6.0083    6.5200    0.3443 C.3       1 <0>        -0.1187
     33 C24         4.5035    6.2640    0.2395 C.3       1 <0>        -0.1146
     34 H2         -1.1850    1.0289   -0.3999 H         1 <0>         0.2495
     35 H3          1.4145   -3.0362   -0.8672 H         1 <0>         0.1652
     36 H4          2.9983   -2.2336   -0.7416 H         1 <0>         0.1728
     37 H5          4.0225   -1.9092    1.3640 H         1 <0>         0.1473
     38 H6          2.6328   -0.8958    1.8223 H         1 <0>         0.1367
     39 H7          3.8388   -1.7377    3.8260 H         1 <0>         0.1203
     40 H8          2.1794   -2.3785    3.7518 H         1 <0>         0.0643
     41 H9          3.2399   -5.6707    2.5275 H         1 <0>         0.1303
     42 H10         1.8274   -4.6899    2.9887 H         1 <0>         0.0666
     43 H11         2.0347   -4.8230    0.5257 H         1 <0>         0.1462
     44 H12         3.6808   -4.1529    0.6232 H         1 <0>         0.1469
     45 H13         3.0059   -3.9801    5.2632 H         1 <0>         0.0693
     46 H14         3.9944   -5.3301    4.6559 H         1 <0>         0.1026
     47 H15         4.4484   -3.8510    7.2949 H         1 <0>         0.1396
     48 H16         5.4512   -5.1893    6.6852 H         1 <0>         0.1377
     49 H17         5.9564   -3.8567    9.2664 H         1 <0>         0.1291
     50 H18         6.8998   -5.1498    8.4893 H         1 <0>         0.1309
     51 H19         8.2731   -3.9171   10.1465 H         1 <0>         0.1157
     52 H20         8.9059   -3.6909    8.4974 H         1 <0>         0.0893
     53 H21         7.1132   -1.7473   10.0256 H         1 <0>         0.0827
     54 H22         8.8449   -1.5266    9.6707 H         1 <0>         0.0977
     55 H23         7.3827   -0.2922    8.0563 H         1 <0>         0.1134
     56 H24         8.3758   -1.5331    7.2532 H         1 <0>         0.0896
     57 H25         6.0306   -1.6115    6.4490 H         1 <0>         0.1254
     58 H26         5.4670   -1.8645    8.1177 H         1 <0>         0.1281
     59 H27         6.4344   -4.8993    4.4242 H         1 <0>         0.3913
     60 H28         3.2453    2.4460   -0.0761 H         1 <0>         0.4059
     61 H29         2.3614    4.9806   -0.9540 H         1 <0>         0.0779
     62 H30         2.2462    4.9305    0.8215 H         1 <0>         0.0764
     63 H31         4.6551    4.2222    0.9095 H         1 <0>         0.0748
     64 H32         4.7632    3.2202   -1.3562 H         1 <0>         0.0564
     65 H33         4.5394    4.8312   -2.0793 H         1 <0>         0.0683
     66 H34         6.8490    3.9996   -0.2651 H         1 <0>         0.0590
     67 H35         6.9376    4.2025   -2.0313 H         1 <0>         0.0642
     68 H36         7.7695    6.2238   -0.8604 H         1 <0>         0.0648
     69 H37         6.2950    6.5852   -1.7898 H         1 <0>         0.0652
     70 H38         6.4107    5.9762    1.1990 H         1 <0>         0.0603
     71 H39         6.1870    7.5872    0.4758 H         1 <0>         0.0681
     72 H40         4.1011    6.8078   -0.6152 H         1 <0>         0.0700
     73 H41         4.0126    6.6049    1.1510 H         1 <0>         0.0673
     74 H42         7.3069   -3.6343    6.6720 H         1 <0>         0.4279
     75 H43         1.2335   -2.8096    1.5311 H         1 <0>         0.4248
@<TRIPOS>BOND
     1    1    5 1
     2    1    2 2
     3    1   34 1
     4    2    3 1
     5    2   24 1
     6    3    4 2
     7    4    5 1
     8    4    6 1
     9    6    7 1
    10    6   35 1
    11    6   36 1
    12    7   12 1
    13    7    8 1
    14    7   75 1
    15    8    9 1
    16    8   37 1
    17    8   38 1
    18    9   10 1
    19    9   39 1
    20    9   40 1
    21   10   11 1
    22   10   13 1
    23   11   12 1
    24   11   41 1
    25   11   42 1
    26   12   43 1
    27   12   44 1
    28   13   14 1
    29   13   45 1
    30   13   46 1
    31   14   15 1
    32   14   16 1
    33   14   23 1
    34   16   17 1
    35   16   47 1
    36   16   48 1
    37   17   22 1
    38   17   18 1
    39   17   74 1
    40   18   19 1
    41   18   49 1
    42   18   50 1
    43   19   20 1
    44   19   51 1
    45   19   52 1
    46   20   21 1
    47   20   53 1
    48   20   54 1
    49   21   22 1
    50   21   55 1
    51   21   56 1
    52   22   57 1
    53   22   58 1
    54   23   59 1
    55   24   25 2
    56   24   26 am
    57   26   27 1
    58   26   60 1
    59   27   28 1
    60   27   61 1
    61   27   62 1
    62   28   33 1
    63   28   29 1
    64   28   63 1
    65   29   30 1
    66   29   64 1
    67   29   65 1
    68   30   31 1
    69   30   66 1
    70   30   67 1
    71   31   32 1
    72   31   68 1
    73   31   69 1
    74   32   33 1
    75   32   70 1
    76   32   71 1
    77   33   72 1
    78   33   73 1
@<TRIPOS>MOLECULE
ZINC39630883
   67    69     0     0     0
SMALL
USER_CHARGES

@<TRIPOS>ATOM
      1 C1          0.0570   -2.8419    1.1316 C.3       1 <0>        -0.1655
      2 C2         -1.2829   -2.7772    0.3958 C.3       1 <0>        -0.0976
      3 C3         -2.2569   -3.7778    1.0211 C.3       1 <0>        -0.1761
      4 C4         -1.8597   -1.3647    0.5097 C.3       1 <0>         0.1305
      5 N1         -2.0616   -1.0322    1.9221 N.am      1 <0>        -0.7345
      6 C5         -2.5644    0.1701    2.2661 C.2       1 <0>         0.5192
      7 O1         -2.8495    0.9767    1.4065 O.2       1 <0>        -0.5010
      8 C6         -2.7721    0.5122    3.7190 C.3       1 <0>        -0.1145
      9 H1         -1.9697    0.0923    4.3255 H         1 <0>         0.1224
     10 C7         -2.8427    2.0443    3.9062 C.3       1 <0>         0.1016
     11 N2         -4.2908    2.3580    3.8828 N.am      1 <0>        -0.6161
     12 C8         -4.9210    1.2464    4.6348 C.3       1 <0>         0.1068
     13 C9         -4.1365   -0.0080    4.2018 C.3       1 <0>        -0.0754
     14 C10        -3.9532   -0.9516    5.3866 C.3       1 <0>        -0.1324
     15 C11        -5.3178   -1.5012    5.8115 C.3       1 <0>        -0.0124
     16 N3         -5.9335   -2.2123    4.6846 N.4       1 <0>        -0.5040
     17 C12        -6.1917   -1.2769    3.5832 C.3       1 <0>        -0.0109
     18 C13        -4.8640   -0.7178    3.0640 C.3       1 <0>        -0.1442
     19 C14        -4.8979    3.4152    3.3082 C.2       1 <0>         0.5972
     20 O2         -6.1114    3.4883    3.2990 O.2       1 <0>        -0.5078
     21 C15        -4.0889    4.4849    2.6896 C.ar      1 <0>        -0.1626
     22 C16        -2.7940    4.7388    3.1469 C.ar      1 <0>        -0.0589
     23 C17        -2.0435    5.7392    2.5643 C.ar      1 <0>        -0.0566
     24 C18        -2.5709    6.4920    1.5274 C.ar      1 <0>        -0.0472
     25 C19        -3.8513    6.2476    1.0687 C.ar      1 <0>        -0.1435
     26 C20        -4.6136    5.2444    1.6395 C.ar      1 <0>         0.1671
     27 F1         -5.8633    5.0023    1.1868 F         1 <0>        -0.1113
     28 Cl1        -0.4339    6.0561    3.1323 Cl        1 <0>        -0.0440
     29 C21        -1.0719   -3.1245   -1.0793 C.3       1 <0>        -0.0042
     30 N4         -0.6332   -4.5216   -1.1955 N.4       1 <0>        -0.3857
     31 C22        -1.8084   -5.4019   -1.2388 C.3       1 <0>        -0.0752
     32 C23         0.1491   -4.6883   -2.4277 C.3       1 <0>        -0.0502
     33 H2          0.4679   -3.8482    1.0504 H         1 <0>         0.0603
     34 H3          0.7509   -2.1290    0.6861 H         1 <0>         0.0827
     35 H4         -0.0933   -2.5944    2.1824 H         1 <0>         0.0819
     36 H5         -2.4509   -3.4975    2.0564 H         1 <0>         0.0774
     37 H6         -3.1924   -3.7722    0.4617 H         1 <0>         0.0800
     38 H7         -1.8213   -4.7765    0.9905 H         1 <0>         0.0715
     39 H8         -1.1657   -0.6519    0.0642 H         1 <0>         0.0856
     40 H9         -2.8142   -1.3186   -0.0145 H         1 <0>         0.0816
     41 H10        -1.8336   -1.6772    2.6097 H         1 <0>         0.3997
     42 H11        -2.4072    2.3306    4.8635 H         1 <0>         0.0964
     43 H12        -2.3308    2.5511    3.0881 H         1 <0>         0.1078
     44 H13        -4.8180    1.4067    5.7080 H         1 <0>         0.0908
     45 H14        -5.9721    1.1508    4.3626 H         1 <0>         0.0924
     46 H15        -3.3026   -1.7768    5.0973 H         1 <0>         0.0948
     47 H16        -3.5048   -0.4083    6.2184 H         1 <0>         0.1252
     48 H17        -5.1881   -2.1887    6.6474 H         1 <0>         0.1431
     49 H18        -5.9624   -0.6768    6.1164 H         1 <0>         0.1362
     50 H19        -5.3108   -2.9400    4.3671 H         1 <0>         0.4237
     51 H20        -6.7061   -1.7990    2.7764 H         1 <0>         0.1386
     52 H21        -6.8154   -0.4578    3.9412 H         1 <0>         0.1377
     53 H22        -5.0577   -0.0098    2.2582 H         1 <0>         0.1202
     54 H23        -4.2463   -1.5347    2.6907 H         1 <0>         0.0923
     55 H24        -2.3811    4.1534    3.9551 H         1 <0>         0.1485
     56 H25        -1.9785    7.2740    1.0758 H         1 <0>         0.1554
     57 H26        -4.2562    6.8385    0.2605 H         1 <0>         0.1592
     58 H27        -2.0082   -2.9914   -1.6214 H         1 <0>         0.1369
     59 H28        -0.3110   -2.4684   -1.5018 H         1 <0>         0.1391
     60 H29        -2.3603   -5.2262   -2.1622 H         1 <0>         0.1258
     61 H30        -1.4848   -6.4421   -1.2013 H         1 <0>         0.1267
     62 H31        -2.4522   -5.1908   -0.3849 H         1 <0>         0.1357
     63 H32         1.0211   -4.0351   -2.3955 H         1 <0>         0.1261
     64 H33         0.4746   -5.7250   -2.5139 H         1 <0>         0.1281
     65 H34        -0.4680   -4.4285   -3.2878 H         1 <0>         0.1259
     66 H35        -0.0620   -4.7621   -0.3993 H         1 <0>         0.4224
     67 H36        -6.8040   -2.6253    4.9844 H         1 <0>         0.4374
@<TRIPOS>BOND
     1    1    2 1
     2    1   33 1
     3    1   34 1
     4    1   35 1
     5    2    3 1
     6    2    4 1
     7    2   29 1
     8    3   36 1
     9    3   37 1
    10    3   38 1
    11    4    5 1
    12    4   39 1
    13    4   40 1
    14    5    6 am
    15    5   41 1
    16    6    7 2
    17    6    8 1
    18    8    9 1
    19    8   13 1
    20    8   10 1
    21   10   11 1
    22   10   42 1
    23   10   43 1
    24   11   12 1
    25   11   19 am
    26   12   13 1
    27   12   44 1
    28   12   45 1
    29   13   18 1
    30   13   14 1
    31   14   15 1
    32   14   46 1
    33   14   47 1
    34   15   16 1
    35   15   48 1
    36   15   49 1
    37   16   17 1
    38   16   50 1
    39   16   67 1
    40   17   18 1
    41   17   51 1
    42   17   52 1
    43   18   53 1
    44   18   54 1
    45   19   20 2
    46   19   21 1
    47   21   26 ar
    48   21   22 ar
    49   22   23 ar
    50   22   55 1
    51   23   24 ar
    52   23   28 1
    53   24   25 ar
    54   24   56 1
    55   25   26 ar
    56   25   57 1
    57   26   27 1
    58   29   30 1
    59   29   58 1
    60   29   59 1
    61   30   31 1
    62   30   32 1
    63   30   66 1
    64   31   60 1
    65   31   61 1
    66   31   62 1
    67   32   63 1
    68   32   64 1
    69   32   65 1
@<TRIPOS>MOLECULE
ZINC39687619
   78    82     0     0     0
SMALL
USER_CHARGES

@<TRIPOS>ATOM
      1 C1         -3.2263   -2.4375    3.4019 C.3       1 <0>        -0.1224
      2 C2         -2.8257   -3.4818    4.4118 C.ar      1 <0>        -0.0742
      3 C3         -3.5596   -4.6470    4.5443 C.ar      1 <0>         0.0064
      4 C4         -3.1544   -5.5816    5.4876 C.ar      1 <0>        -0.1179
      5 C5         -2.0396   -5.3233    6.2601 C.ar      1 <0>         0.1279
      6 N1         -1.3588   -4.2028    6.1123 N.ar      1 <0>        -0.4571
      7 C6         -1.7097   -3.2897    5.2195 C.ar      1 <0>         0.3968
      8 N2         -0.9598   -2.1261    5.0930 N.pl3     1 <0>        -0.6710
      9 C7          0.0964   -2.0230    4.0769 C.3       1 <0>         0.1362
     10 C8          1.4008   -1.6039    4.7624 C.3       1 <0>        -0.1454
     11 C9          1.1645   -0.3170    5.5562 C.3       1 <0>         0.1443
     12 C10         0.1102   -0.5684    6.6367 C.3       1 <0>        -0.1457
     13 C11        -1.2125   -0.9738    5.9688 C.3       1 <0>         0.1333
     14 N3          2.4181    0.1048    6.1862 N.am      1 <0>        -0.7307
     15 C12         2.6127    1.4016    6.4976 C.2       1 <0>         0.5208
     16 O1          1.7501    2.2193    6.2562 O.2       1 <0>        -0.5100
     17 C13         3.9022    1.8356    7.1457 C.3       1 <0>        -0.1162
     18 H1          4.7387    1.2622    6.7461 H         1 <0>         0.1222
     19 C14         4.1325    3.3476    6.9259 C.3       1 <0>         0.1093
     20 N4          3.5931    3.9900    8.1475 N.am      1 <0>        -0.6184
     21 C15         3.9979    3.0847    9.2496 C.3       1 <0>         0.1078
     22 C16         3.8177    1.6667    8.6719 C.3       1 <0>        -0.0741
     23 C17         2.4547    1.1065    9.0670 C.3       1 <0>        -0.1452
     24 C18         2.4154    0.8942   10.5830 C.3       1 <0>        -0.0107
     25 N5          3.4815   -0.0350   10.9765 N.4       1 <0>        -0.5039
     26 C19         4.7933    0.5519   10.6771 C.3       1 <0>        -0.0121
     27 C20         4.9330    0.7500    9.1651 C.3       1 <0>        -0.1327
     28 C21         2.8926    5.1380    8.2366 C.2       1 <0>         0.5527
     29 O2          2.5174    5.5370    9.3187 O.2       1 <0>        -0.5032
     30 C22         2.5757    5.9258    6.9916 C.3       1 <0>         0.0726
     31 H2          2.0639    5.2831    6.2754 H         1 <0>         0.1039
     32 C23         3.8747    6.4460    6.3727 C.3       1 <0>        -0.1806
     33 O3          1.7330    7.0297    7.3281 O.3       1 <0>        -0.2874
     34 C24         0.9704    7.5503    6.3309 C.ar      1 <0>         0.1235
     35 C25         0.9670    6.9568    5.0769 C.ar      1 <0>        -0.2119
     36 C26         0.1906    7.4876    4.0651 C.ar      1 <0>        -0.0799
     37 C27        -0.5823    8.6095    4.3011 C.ar      1 <0>        -0.1518
     38 C28        -0.5802    9.2031    5.5499 C.ar      1 <0>        -0.0757
     39 C29         0.1897    8.6725    6.5668 C.ar      1 <0>        -0.1453
     40 H3         -2.6647   -2.5892    2.4801 H         1 <0>         0.0977
     41 H4         -4.2932   -2.5222    3.1954 H         1 <0>         0.0952
     42 H5         -3.0108   -1.4458    3.7996 H         1 <0>         0.0892
     43 H6         -4.4284   -4.8254    3.9281 H         1 <0>         0.1803
     44 H7         -3.7059   -6.5013    5.6161 H         1 <0>         0.1895
     45 H8         -1.7209   -6.0476    6.9950 H         1 <0>         0.2085
     46 H9          0.2327   -2.9897    3.5921 H         1 <0>         0.0874
     47 H10        -0.1826   -1.2756    3.3343 H         1 <0>         0.0877
     48 H11         1.7265   -2.3941    5.4388 H         1 <0>         0.0704
     49 H12         2.1686   -1.4305    4.0083 H         1 <0>         0.0956
     50 H13         0.8152    0.4659    4.8831 H         1 <0>         0.1003
     51 H14         0.4481   -1.3684    7.2955 H         1 <0>         0.0632
     52 H15        -0.0405    0.3420    7.2167 H         1 <0>         0.0871
     53 H16        -1.5961   -0.1425    5.3773 H         1 <0>         0.0881
     54 H17        -1.9402   -1.2479    6.7326 H         1 <0>         0.0822
     55 H18         3.1080   -0.5491    6.3793 H         1 <0>         0.4000
     56 H19         5.1969    3.5589    6.8238 H         1 <0>         0.0960
     57 H20         3.5899    3.6906    6.0450 H         1 <0>         0.1003
     58 H21         5.0403    3.2552    9.5186 H         1 <0>         0.0895
     59 H22         3.3521    3.2276   10.1160 H         1 <0>         0.0901
     60 H23         1.6743    1.8102    8.7777 H         1 <0>         0.1195
     61 H24         2.2924    0.1543    8.5619 H         1 <0>         0.0933
     62 H25         2.5617    1.8494   11.0873 H         1 <0>         0.1374
     63 H26         1.4485    0.4785   10.8665 H         1 <0>         0.1369
     64 H27         3.4156   -0.2207   11.9661 H         1 <0>         0.4367
     65 H28         4.8833    1.5150   11.1794 H         1 <0>         0.1359
     66 H29         5.5790   -0.1162   11.0299 H         1 <0>         0.1429
     67 H30         4.8596   -0.2148    8.6634 H         1 <0>         0.0957
     68 H31         5.9000    1.2025    8.9453 H         1 <0>         0.1251
     69 H32         4.3865    7.0887    7.0890 H         1 <0>         0.0783
     70 H33         4.5175    5.6039    6.1161 H         1 <0>         0.0759
     71 H34         3.6455    7.0158    5.4723 H         1 <0>         0.0828
     72 H35         1.5710    6.0809    4.8919 H         1 <0>         0.1243
     73 H36         0.1875    7.0260    3.0887 H         1 <0>         0.1258
     74 H37        -1.1883    9.0231    3.5086 H         1 <0>         0.1280
     75 H38        -1.1845   10.0795    5.7317 H         1 <0>         0.1344
     76 H39         0.1876    9.1339    7.5433 H         1 <0>         0.1334
     77 H40         3.3773   -0.8996   10.4670 H         1 <0>         0.4240
     78 H41        -0.5794   -4.0459    6.6680 H         1 <0>         0.4372
@<TRIPOS>BOND
     1    1    2 1
     2    1   40 1
     3    1   41 1
     4    1   42 1
     5    2    7 ar
     6    2    3 ar
     7    3    4 ar
     8    3   43 1
     9    4    5 ar
    10    4   44 1
    11    5    6 ar
    12    5   45 1
    13    6    7 ar
    14    6   78 1
    15    7    8 1
    16    8   13 1
    17    8    9 1
    18    9   10 1
    19    9   46 1
    20    9   47 1
    21   10   11 1
    22   10   48 1
    23   10   49 1
    24   11   12 1
    25   11   14 1
    26   11   50 1
    27   12   13 1
    28   12   51 1
    29   12   52 1
    30   13   53 1
    31   13   54 1
    32   14   15 am
    33   14   55 1
    34   15   16 2
    35   15   17 1
    36   17   18 1
    37   17   22 1
    38   17   19 1
    39   19   20 1
    40   19   56 1
    41   19   57 1
    42   20   21 1
    43   20   28 am
    44   21   22 1
    45   21   58 1
    46   21   59 1
    47   22   27 1
    48   22   23 1
    49   23   24 1
    50   23   60 1
    51   23   61 1
    52   24   25 1
    53   24   62 1
    54   24   63 1
    55   25   26 1
    56   25   64 1
    57   25   77 1
    58   26   27 1
    59   26   65 1
    60   26   66 1
    61   27   67 1
    62   27   68 1
    63   28   29 2
    64   28   30 1
    65   30   31 1
    66   30   32 1
    67   30   33 1
    68   32   69 1
    69   32   70 1
    70   32   71 1
    71   33   34 1
    72   34   39 ar
    73   34   35 ar
    74   35   36 ar
    75   35   72 1
    76   36   37 ar
    77   36   73 1
    78   37   38 ar
    79   37   74 1
    80   38   39 ar
    81   38   75 1
    82   39   76 1
@<TRIPOS>MOLECULE
ZINC63547132
   56    60     0     0     0
SMALL
USER_CHARGES

@<TRIPOS>ATOM
      1 C1         -0.0173    1.4248    0.0099 C.3       1 <0>         0.0129
      2 O1          0.0021   -0.0041    0.0020 O.3       1 <0>        -0.3007
      3 C2          0.6259   -0.6185    1.0416 C.ar      1 <0>         0.1140
      4 C3          1.2016    0.1727    2.0511 C.ar      1 <0>        -0.0255
      5 C4          1.8387   -0.3584    3.1165 C.ar      1 <0>        -0.1541
      6 C5          1.9470   -1.8149    3.2480 C.ar      1 <0>         0.3167
      7 N1          2.5004   -2.5731    4.1613 N.pl3     1 <0>        -0.5662
      8 C6          2.3082   -3.9776    3.7822 C.3       1 <0>         0.0620
      9 C7          1.5414   -3.9542    2.4788 C.2       1 <0>         0.0374
     10 C8          1.3404   -2.6497    2.1853 C.ar      1 <0>        -0.1155
     11 C9          0.6667   -1.9721    1.0722 C.ar      1 <0>        -0.1077
     12 C10         1.0918   -5.1442    1.6708 C.3       1 <0>        -0.0978
     13 C11         2.2300   -5.5979    0.7545 C.3       1 <0>         0.1252
     14 N2          1.7930   -6.7548   -0.0310 N.am      1 <0>        -0.7264
     15 C12         2.6360   -7.3282   -0.9124 C.2       1 <0>         0.5300
     16 O2          3.7565   -6.8865   -1.0554 O.2       1 <0>        -0.4873
     17 C13         2.1865   -8.5182   -1.7204 C.3       1 <0>         0.0906
     18 H1          1.3141   -8.2615   -2.3213 H         1 <0>         0.1432
     19 C14         1.8768   -9.6857   -0.8125 C.2       1 <0>        -0.2144
     20 C15         2.7221  -10.6818   -1.1568 C.2       1 <0>         0.2652
     21 N3          2.8256  -11.9251   -0.6260 N.pl3     1 <0>        -0.5200
     22 C16         3.7153  -12.7877   -1.0821 C.2       1 <0>         0.4522
     23 C17         4.6038  -12.3961   -2.1778 C.2       1 <0>        -0.2258
     24 C18         4.4922  -11.1587   -2.6975 C.2       1 <0>         0.2175
     25 N4          3.5523  -10.2876   -2.1951 N.pl3     1 <0>        -0.3489
     26 N5          3.2810   -8.9984   -2.5815 N.3       1 <0>        -0.3886
     27 C19         5.3942  -10.7288   -3.8256 C.3       1 <0>         0.5170
     28 F1          6.2571  -11.7784   -4.1586 F         1 <0>        -0.1387
     29 F2          4.6187  -10.3913   -4.9400 F         1 <0>        -0.1504
     30 F3          6.1441   -9.6176   -3.4255 F         1 <0>        -0.1348
     31 C20         3.8127  -14.1332   -0.4936 C.2       1 <0>        -0.1101
     32 C21         4.6875  -15.1096   -0.8683 C.2       1 <0>        -0.0255
     33 C22         4.4303  -16.2204   -0.0459 C.2       1 <0>        -0.2251
     34 C23         3.4225  -15.8751    0.7831 C.2       1 <0>         0.0939
     35 O3          3.0566  -14.6133    0.5138 O.3       1 <0>        -0.1693
     36 H2          1.0053    1.8021    0.0021 H         1 <0>         0.0665
     37 H3         -0.5445    1.7859   -0.8732 H         1 <0>         0.1194
     38 H4         -0.5275    1.7763    0.9067 H         1 <0>         0.0667
     39 H5          1.1318    1.2475    1.9711 H         1 <0>         0.1703
     40 H6          2.2674    0.2871    3.8688 H         1 <0>         0.1723
     41 H7          3.2733   -4.4642    3.6416 H         1 <0>         0.1755
     42 H8          1.7323   -4.4978    4.5476 H         1 <0>         0.1772
     43 H9          0.2096   -2.5482    0.2812 H         1 <0>         0.1640
     44 H10         0.8201   -5.9581    2.3430 H         1 <0>         0.1162
     45 H11         0.2275   -4.8678    1.0669 H         1 <0>         0.1172
     46 H12         2.5017   -4.7841    0.0823 H         1 <0>         0.0855
     47 H13         3.0944   -5.8743    1.3584 H         1 <0>         0.0809
     48 H14         0.8969   -7.1081    0.0834 H         1 <0>         0.4080
     49 H15         1.1252   -9.7176   -0.0376 H         1 <0>         0.2004
     50 H16         5.3376  -13.0886   -2.5630 H         1 <0>         0.2188
     51 H17         3.0192   -8.9583   -3.5551 H         1 <0>         0.3873
     52 H18         5.4335  -15.0427   -1.6463 H         1 <0>         0.1847
     53 H19         4.9425  -17.1708   -0.0723 H         1 <0>         0.1851
     54 H20         2.9861  -16.5086    1.5411 H         1 <0>         0.2381
     55 H21         2.9608   -2.2589    4.9551 H         1 <0>         0.4591
     56 H22         2.2373  -12.1849    0.1002 H         1 <0>         0.4618
@<TRIPOS>BOND
     1    1    2 1
     2    1   36 1
     3    1   37 1
     4    1   38 1
     5    2    3 1
     6    3   11 ar
     7    3    4 ar
     8    4    5 ar
     9    4   39 1
    10    5    6 ar
    11    5   40 1
    12    6   10 ar
    13    6    7 2
    14    7    8 1
    15    7   55 1
    16    8    9 1
    17    8   41 1
    18    8   42 1
    19    9   10 2
    20    9   12 1
    21   10   11 ar
    22   11   43 1
    23   12   13 1
    24   12   44 1
    25   12   45 1
    26   13   14 1
    27   13   46 1
    28   13   47 1
    29   14   15 am
    30   14   48 1
    31   15   16 2
    32   15   17 1
    33   17   18 1
    34   17   26 1
    35   17   19 1
    36   19   20 2
    37   19   49 1
    38   20   25 1
    39   20   21 1
    40   21   22 2
    41   21   56 1
    42   22   23 1
    43   22   31 1
    44   23   24 2
    45   23   50 1
    46   24   25 1
    47   24   27 1
    48   25   26 1
    49   26   51 1
    50   27   28 1
    51   27   29 1
    52   27   30 1
    53   31   35 1
    54   31   32 2
    55   32   33 1
    56   32   52 1
    57   33   34 2
    58   33   53 1
    59   34   35 1
    60   34   54 1
@<TRIPOS>MOLECULE
ZINC00354756
   33    35     0     0     0
SMALL
USER_CHARGES
amino-methyl-BLAHcarboxamide
@<TRIPOS>ATOM
      1 C1          3.7001   -0.4969    0.2718 C.3       1 <0>        -0.0414
      2 C2          1.3805   -0.5049   -0.4296 C.3       1 <0>         0.0022
      3 C3          0.0021   -0.0041    0.0020 C.3       1 <0>        -0.0997
      4 C4         -0.0184    1.5036    0.0103 C.ar      1 <0>         0.1778
      5 C5          1.1508    2.2446    0.0031 C.ar      1 <0>        -0.2082
      6 C6          1.0952    3.6236    0.0157 C.ar      1 <0>         0.0206
      7 C7         -0.1637    4.2693    0.0331 C.ar      1 <0>        -0.1729
      8 C8         -0.4572    5.6942    0.0470 C.2       1 <0>         0.2925
      9 C9         -1.7765    6.0897    0.0614 C.2       1 <0>        -0.3362
     10 S1         -2.6697    4.5477    0.0570 S.3       1 <0>         0.1671
     11 C10        -1.2957    3.4231    0.0366 C.ar      1 <0>         0.1345
     12 N1         -1.1927    2.1137    0.0304 N.ar      1 <0>        -0.4347
     13 C11        -2.2985    7.4074    0.0765 C.2       1 <0>         0.6204
     14 O1         -1.5424    8.3619    0.0779 O.2       1 <0>        -0.5490
     15 N2         -3.6318    7.6039    0.0893 N.am      1 <0>        -0.8460
     16 N3          0.5664    6.6315    0.0464 N.pl3     1 <0>        -0.8198
     17 C12         2.5063    1.5864   -0.0205 C.3       1 <0>         0.0604
     18 H1          4.0233   -0.4990   -0.7692 H         1 <0>         0.1256
     19 H2          4.4359    0.0297    0.8796 H         1 <0>         0.1249
     20 H3          3.6053   -1.5238    0.6248 H         1 <0>         0.1277
     21 H4          1.4463   -1.5809   -0.2680 H         1 <0>         0.1462
     22 H5          1.5381   -0.2799   -1.4845 H         1 <0>         0.1373
     23 H6         -0.2205   -0.3745    1.0027 H         1 <0>         0.1192
     24 H7         -0.7500   -0.3723   -0.6957 H         1 <0>         0.1391
     25 H8          2.0052    4.2051    0.0127 H         1 <0>         0.1497
     26 H9         -4.2342    6.8435    0.0882 H         1 <0>         0.4010
     27 H10        -3.9891    8.5056    0.0997 H         1 <0>         0.4131
     28 H11         1.4913    6.3394    0.0365 H         1 <0>         0.3992
     29 H12         0.3569    7.5785    0.0557 H         1 <0>         0.4295
     30 H13         3.1720    2.1078    0.6673 H         1 <0>         0.1403
     31 H14         2.9174    1.6443   -1.0284 H         1 <0>         0.1427
     32 N4          2.3903    0.1807    0.4016 N.4       1 <0>        -0.3968
     33 H15         2.0937    0.1489    1.3841 H         1 <0>         0.4337
@<TRIPOS>BOND
     1    1   18 1
     2    1   19 1
     3    1   20 1
     4    1   32 1
     5    2    3 1
     6    2   21 1
     7    2   22 1
     8    2   32 1
     9    3    4 1
    10    3   23 1
    11    3   24 1
    12    4   12 ar
    13    4    5 ar
    14    5    6 ar
    15    5   17 1
    16    6    7 ar
    17    6   25 1
    18    7   11 ar
    19    7    8 1
    20    8    9 2
    21    8   16 1
    22    9   10 1
    23    9   13 1
    24   10   11 1
    25   11   12 ar
    26   13   14 2
    27   13   15 am
    28   15   26 1
    29   15   27 1
    30   16   28 1
    31   16   29 1
    32   17   30 1
    33   17   31 1
    34   17   32 1
    35   32   33 1
@<TRIPOS>MOLECULE
ZINC41027839
   38    39     0     0     0
SMALL
USER_CHARGES

@<TRIPOS>ATOM
      1 C1         -0.0187    1.5258    0.0104 C.3       1 <0>        -0.1786
      2 C2          0.0021   -0.0041    0.0020 C.3       1 <0>         0.0853
      3 H1          0.5123   -0.3556   -0.8948 H         1 <0>         0.1504
      4 C3          0.7309   -0.5033    1.2229 C.ar      1 <0>        -0.1726
      5 C4          0.0170   -0.9505    2.3185 C.ar      1 <0>        -0.1016
      6 C5          0.6823   -1.4087    3.4392 C.ar      1 <0>        -0.1379
      7 C6          2.0699   -1.4210    3.4673 C.ar      1 <0>         0.1553
      8 C7          2.7882   -0.9730    2.3698 C.ar      1 <0>        -0.1606
      9 C8          2.1182   -0.5189    1.2440 C.ar      1 <0>         0.1595
     10 O1          2.8197   -0.0846    0.1641 O.3       1 <0>        -0.4913
     11 O2          2.7238   -1.8715    4.5702 O.3       1 <0>        -0.4912
     12 N1         -1.3761   -0.5125    0.0124 N.4       1 <0>        -0.3782
     13 C9         -1.3545   -1.9802    0.0134 C.3       1 <0>        -0.0192
     14 C10        -2.7852   -2.5150    0.1060 C.3       1 <0>        -0.1418
     15 C11        -3.5900   -2.0155   -1.0974 C.3       1 <0>        -0.1347
     16 C12        -3.5435   -0.4852   -1.1304 C.3       1 <0>         0.0759
     17 H2         -4.0220   -0.0871   -0.2355 H         1 <0>         0.0573
     18 C13        -2.0847   -0.0255   -1.1772 C.3       1 <0>        -0.0096
     19 N2         -4.2506    0.0015   -2.3225 N.3       1 <0>        -0.8381
     20 H3          1.0039    1.9031    0.0027 H         1 <0>         0.1037
     21 H4         -0.5459    1.8868   -0.8726 H         1 <0>         0.0884
     22 H5         -0.5289    1.8773    0.9072 H         1 <0>         0.0831
     23 H6         -1.0627   -0.9413    2.2986 H         1 <0>         0.1248
     24 H7          0.1222   -1.7574    4.2943 H         1 <0>         0.1459
     25 H8          3.8680   -0.9818    2.3897 H         1 <0>         0.1505
     26 H9          3.0268    0.8597    0.1834 H         1 <0>         0.4031
     27 H10         2.9126   -2.8198    4.5556 H         1 <0>         0.4067
     28 H11        -0.8927   -2.3369   -0.9073 H         1 <0>         0.1325
     29 H12        -0.7787   -2.3341    0.8685 H         1 <0>         0.1362
     30 H13        -2.7672   -3.6049    0.1047 H         1 <0>         0.1175
     31 H14        -3.2480   -2.1591    1.0264 H         1 <0>         0.0862
     32 H15        -3.1576   -2.4132   -2.0155 H         1 <0>         0.0925
     33 H16        -4.6245   -2.3469   -1.0069 H         1 <0>         0.0930
     34 H17        -2.0480    1.0636   -1.2009 H         1 <0>         0.1318
     35 H18        -1.6073   -0.4239   -2.0724 H         1 <0>         0.1398
     36 H19        -5.2158   -0.2925   -2.3156 H         1 <0>         0.3659
     37 H20        -4.1787    1.0049   -2.4011 H         1 <0>         0.3536
     38 H21        -1.8482   -0.1846    0.8417 H         1 <0>         0.4166
@<TRIPOS>BOND
     1    1    2 1
     2    1   20 1
     3    1   21 1
     4    1   22 1
     5    2    3 1
     6    2    4 1
     7    2   12 1
     8    4    9 ar
     9    4    5 ar
    10    5    6 ar
    11    5   23 1
    12    6    7 ar
    13    6   24 1
    14    7    8 ar
    15    7   11 1
    16    8    9 ar
    17    8   25 1
    18    9   10 1
    19   10   26 1
    20   11   27 1
    21   12   18 1
    22   12   13 1
    23   12   38 1
    24   13   14 1
    25   13   28 1
    26   13   29 1
    27   14   15 1
    28   14   30 1
    29   14   31 1
    30   15   16 1
    31   15   32 1
    32   15   33 1
    33   16   17 1
    34   16   18 1
    35   16   19 1
    36   18   34 1
    37   18   35 1
    38   19   36 1
    39   19   37 1
@<TRIPOS>MOLECULE
ZINC52015537
   42    43     0     0     0
SMALL
USER_CHARGES

@<TRIPOS>ATOM
      1 C1         -0.0168    1.3911    0.0097 C.ar      1 <0>        -0.1006
      2 C2          1.1703    2.0942    0.0021 C.ar      1 <0>        -0.0166
      3 C3          2.3776    1.4188   -0.0130 C.ar      1 <0>        -0.6519
      4 C4          2.4032    0.0356   -0.0207 C.ar      1 <0>        -0.0194
      5 C5          1.2231   -0.6792   -0.0137 C.ar      1 <0>        -0.0979
      6 C6          0.0021   -0.0041    0.0020 C.ar      1 <0>         0.0173
      7 C7         -1.2264   -0.7399    0.0103 C.1       1 <0>         0.0022
      8 C8         -2.2335   -1.3432    0.0170 C.1       1 <0>        -0.2712
      9 C9         -3.4963   -2.0996    0.0255 C.3       1 <0>         0.1423
     10 N1         -3.2048   -3.5393    0.0149 N.4       1 <0>        -0.6378
     11 S1          3.8891    2.3242   -0.0232 S.o2      1 <0>         2.6895
     12 O1          4.8720    1.4674   -0.5879 O.2       1 <0>        -0.9404
     13 O2          3.5923    3.6040   -0.5647 O.2       1 <0>        -0.9486
     14 N2          4.3246    2.5679    1.5559 N.pl3     1 <0>        -1.1010
     15 C10         4.6701    1.4252    2.4051 C.3       1 <0>         0.1561
     16 H1          5.0156    0.6005    1.7817 H         1 <0>         0.1000
     17 C11         3.4358    0.9851    3.1949 C.3       1 <0>        -0.1399
     18 C12         3.7967   -0.2082    4.0818 C.3       1 <0>        -0.1205
     19 C13         4.9069    0.1961    5.0539 C.3       1 <0>        -0.1218
     20 C14         6.1411    0.6361    4.2641 C.3       1 <0>        -0.1543
     21 C15         5.7802    1.8295    3.3772 C.3       1 <0>         0.1039
     22 H2          5.4348    2.6542    4.0006 H         1 <0>         0.0638
     23 O3          6.9330    2.2405    2.6395 O.3       1 <0>        -0.5591
     24 H3         -0.9586    1.9195    0.0260 H         1 <0>         0.1404
     25 H4          1.1570    3.1741    0.0077 H         1 <0>         0.1540
     26 H5          3.3490   -0.4857   -0.0325 H         1 <0>         0.1537
     27 H6          1.2444   -1.7590   -0.0204 H         1 <0>         0.1425
     28 H7         -4.0631   -1.8502    0.9225 H         1 <0>         0.1555
     29 H8         -4.0808   -1.8407   -0.8573 H         1 <0>         0.1554
     30 H9         -2.6800   -3.7701   -0.8155 H         1 <0>         0.4388
     31 H10        -2.6637   -3.7789    0.8321 H         1 <0>         0.4392
     32 H11         4.3508    3.4671    1.9185 H         1 <0>         0.4228
     33 H12         3.0904    1.8098    3.8184 H         1 <0>         0.0769
     34 H13         2.6449    0.6971    2.5024 H         1 <0>         0.0695
     35 H14         2.9174   -0.5217    4.6446 H         1 <0>         0.0703
     36 H15         4.1422   -1.0329    3.4584 H         1 <0>         0.0679
     37 H16         4.5614    1.0208    5.6774 H         1 <0>         0.0670
     38 H17         5.1639   -0.6541    5.6858 H         1 <0>         0.0718
     39 H18         6.9320    0.9242    4.9566 H         1 <0>         0.0748
     40 H19         6.4866   -0.1885    3.6407 H         1 <0>         0.0766
     41 H20         7.6782    2.5114    3.1930 H         1 <0>         0.3837
     42 H21        -4.0703   -4.0578    0.0207 H         1 <0>         0.4452
@<TRIPOS>BOND
     1    1    6 ar
     2    1    2 ar
     3    1   24 1
     4    2    3 ar
     5    2   25 1
     6    3    4 ar
     7    3   11 1
     8    4    5 ar
     9    4   26 1
    10    5    6 ar
    11    5   27 1
    12    6    7 1
    13    7    8 3
    14    8    9 1
    15    9   10 1
    16    9   28 1
    17    9   29 1
    18   10   30 1
    19   10   31 1
    20   10   42 1
    21   11   12 2
    22   11   13 2
    23   11   14 1
    24   14   15 1
    25   14   32 1
    26   15   16 1
    27   15   21 1
    28   15   17 1
    29   17   18 1
    30   17   33 1
    31   17   34 1
    32   18   19 1
    33   18   35 1
    34   18   36 1
    35   19   20 1
    36   19   37 1
    37   19   38 1
    38   20   21 1
    39   20   39 1
    40   20   40 1
    41   21   22 1
    42   21   23 1
    43   23   41 1
@<TRIPOS>MOLECULE
ZINC53127497
   47    47     0     0     0
SMALL
USER_CHARGES

@<TRIPOS>ATOM
      1 C1         -0.6362    1.4826    0.1253 C.3       1 <0>        -0.1750
      2 C2         -0.5053   -0.0417    0.1053 C.3       1 <0>        -0.0906
      3 H1         -0.2558   -0.3717   -0.9032 H         1 <0>         0.0824
      4 C3         -1.8310   -0.6731    0.5351 C.3       1 <0>        -0.1211
      5 C4         -2.1812   -0.2098    1.9506 C.3       1 <0>        -0.1164
      6 C5         -1.0749   -0.6394    2.9162 C.3       1 <0>        -0.1352
      7 C6          0.2508   -0.0080    2.4864 C.3       1 <0>         0.1869
      8 C7          0.6010   -0.4712    1.0709 C.3       1 <0>        -0.1231
      9 C8          1.3571   -0.4375    3.4520 C.3       1 <0>         0.0636
     10 O1          1.0100   -0.0417    4.7805 O.3       1 <0>        -0.5461
     11 N1          0.1254    1.4515    2.5055 N.am      1 <0>        -0.7002
     12 C9         -0.3277    2.0745    3.6114 C.2       1 <0>         0.4996
     13 O2         -0.7215    1.4235    4.5558 O.2       1 <0>        -0.4784
     14 C10        -0.3449    3.5801    3.6745 C.3       1 <0>         0.0069
     15 H2         -0.6592    3.9806    2.7107 H         1 <0>         0.1571
     16 C11         1.0578    4.0928    4.0068 C.3       1 <0>        -0.0723
     17 C12         2.0369    3.6389    2.9222 C.3       1 <0>        -0.1605
     18 C13         1.0403    5.6213    4.0708 C.3       1 <0>        -0.1647
     19 C14         1.4990    3.5307    5.3597 C.3       1 <0>        -0.1692
     20 N2         -1.2850    4.0159    4.7158 N.4       1 <0>        -0.6219
     21 H3          0.3547    1.9331    0.0694 H         1 <0>         0.0560
     22 H4         -1.2316    1.8074   -0.7280 H         1 <0>         0.0645
     23 H5         -1.1250    1.7932    1.0487 H         1 <0>         0.0704
     24 H6         -2.6191   -0.3670   -0.1528 H         1 <0>         0.0667
     25 H7         -1.7377   -1.7590    0.5209 H         1 <0>         0.0688
     26 H8         -2.2745    0.8761    1.9649 H         1 <0>         0.0546
     27 H9         -3.1257   -0.6596    2.2569 H         1 <0>         0.0657
     28 H10        -1.3245   -0.3093    3.9247 H         1 <0>         0.1069
     29 H11        -0.9817   -1.7253    2.9020 H         1 <0>         0.0720
     30 H12         0.6943   -1.5571    1.0566 H         1 <0>         0.0906
     31 H13         1.5455   -0.0214    0.7646 H         1 <0>         0.0743
     32 H14         1.4721   -1.5208    3.4140 H         1 <0>         0.0604
     33 H15         2.2950    0.0377    3.1646 H         1 <0>         0.0467
     34 H16         1.6679   -0.2823    5.4471 H         1 <0>         0.3739
     35 H17         0.3685    1.9695    1.7222 H         1 <0>         0.4113
     36 H18         1.7226    4.0394    1.9584 H         1 <0>         0.0698
     37 H19         3.0362    4.0041    3.1590 H         1 <0>         0.0848
     38 H20         2.0494    2.5500    2.8766 H         1 <0>         0.0747
     39 H21         0.3428    5.9446    4.8435 H         1 <0>         0.0556
     40 H22         2.0396    5.9865    4.3076 H         1 <0>         0.0904
     41 H23         0.7260    6.0218    3.1070 H         1 <0>         0.0763
     42 H24         1.5114    2.4417    5.3141 H         1 <0>         0.0869
     43 H25         2.4983    3.8959    5.5965 H         1 <0>         0.0851
     44 H26         0.8015    3.8540    6.1324 H         1 <0>         0.0539
     45 H27        -0.9940    3.6452    5.6080 H         1 <0>         0.4404
     46 H28        -1.2965    5.0239    4.7581 H         1 <0>         0.4382
     47 H29        -2.2101    3.6778    4.4967 H         1 <0>         0.4391
@<TRIPOS>BOND
     1    1    2 1
     2    1   21 1
     3    1   22 1
     4    1   23 1
     5    2    3 1
     6    2    8 1
     7    2    4 1
     8    4    5 1
     9    4   24 1
    10    4   25 1
    11    5    6 1
    12    5   26 1
    13    5   27 1
    14    6    7 1
    15    6   28 1
    16    6   29 1
    17    7    8 1
    18    7    9 1
    19    7   11 1
    20    8   30 1
    21    8   31 1
    22    9   10 1
    23    9   32 1
    24    9   33 1
    25   10   34 1
    26   11   12 am
    27   11   35 1
    28   12   13 2
    29   12   14 1
    30   14   15 1
    31   14   16 1
    32   14   20 1
    33   16   17 1
    34   16   18 1
    35   16   19 1
    36   17   36 1
    37   17   37 1
    38   17   38 1
    39   18   39 1
    40   18   40 1
    41   18   41 1
    42   19   42 1
    43   19   43 1
    44   19   44 1
    45   20   45 1
    46   20   46 1
    47   20   47 1
@<TRIPOS>MOLECULE
ZINC58790338
   41    41     0     0     0
SMALL
USER_CHARGES

@<TRIPOS>ATOM
      1 C1         -0.0187    1.5258    0.0104 C.3       1 <0>        -0.1539
      2 C2          0.0021   -0.0041    0.0020 C.3       1 <0>        -0.0941
      3 C3          0.7182   -0.4975   -1.2568 C.3       1 <0>        -0.1183
      4 C4          0.7390   -2.0273   -1.2652 C.3       1 <0>        -0.1101
      5 C5          1.4790   -2.5342   -0.0257 C.3       1 <0>        -0.1136
      6 C6          0.7628   -2.0407    1.2331 C.3       1 <0>        -0.1309
      7 C7          0.7421   -0.5109    1.2415 C.3       1 <0>        -0.1168
      8 C8          1.4997   -4.0640   -0.0341 C.3       1 <0>        -0.0097
      9 N1          2.3115   -4.5489    1.0901 N.4       1 <0>        -0.4977
     10 C9          2.3314   -6.0177    1.0821 C.3       1 <0>         0.0085
     11 H1          2.6785   -6.3711    0.1111 H         1 <0>         0.1739
     12 C10         0.9203   -6.5484    1.3432 C.3       1 <0>        -0.1846
     13 C11         3.2617   -6.5134    2.1590 C.2       1 <0>         0.5139
     14 O1          3.8500   -5.7214    2.8636 O.2       1 <0>        -0.4508
     15 N2          3.4398   -7.8372    2.3389 N.am      1 <0>        -0.6750
     16 C12         4.2718   -8.2805    3.3020 C.2       1 <0>         0.6965
     17 O2          4.8616   -7.4865    4.0083 O.2       1 <0>        -0.5194
     18 N3          4.4499   -9.6043    3.4818 N.am      1 <0>        -0.8448
     19 H2          1.0039    1.9031    0.0027 H         1 <0>         0.0568
     20 H3         -0.5459    1.8868   -0.8726 H         1 <0>         0.0596
     21 H4         -0.5289    1.8773    0.9072 H         1 <0>         0.0586
     22 H5         -1.0205   -0.3814    0.0098 H         1 <0>         0.0731
     23 H6          0.1910   -0.1364   -2.1398 H         1 <0>         0.0749
     24 H7          1.7408   -0.1202   -1.2645 H         1 <0>         0.0679
     25 H8         -0.2836   -2.4046   -1.2575 H         1 <0>         0.0750
     26 H9          1.2492   -2.3788   -2.1620 H         1 <0>         0.0750
     27 H10         2.5015   -2.1569   -0.0334 H         1 <0>         0.0973
     28 H11        -0.2598   -2.4180    1.2409 H         1 <0>         0.0794
     29 H12         1.2900   -2.4018    2.1162 H         1 <0>         0.0583
     30 H13         1.7647   -0.1336    1.2338 H         1 <0>         0.0687
     31 H14         0.2319   -0.1594    2.1383 H         1 <0>         0.0738
     32 H15         0.4819   -4.4417    0.0632 H         1 <0>         0.1377
     33 H16         1.9300   -4.4164   -0.9715 H         1 <0>         0.1379
     34 H17         3.2537   -4.1992    1.0001 H         1 <0>         0.4366
     35 H18         0.9351   -7.6382    1.3372 H         1 <0>         0.1126
     36 H19         0.5732   -6.1950    2.3141 H         1 <0>         0.0930
     37 H20         0.2474   -6.1898    0.5643 H         1 <0>         0.1037
     38 H21         2.9691   -8.4709    1.7751 H         1 <0>         0.4189
     39 H22         3.9792  -10.2380    2.9181 H         1 <0>         0.4052
     40 H23         5.0487   -9.9234    4.1750 H         1 <0>         0.4306
     41 H24         1.9132   -4.2227    1.9579 H         1 <0>         0.4324
@<TRIPOS>BOND
     1    1    2 1
     2    1   19 1
     3    1   20 1
     4    1   21 1
     5    2    7 1
     6    2    3 1
     7    2   22 1
     8    3    4 1
     9    3   23 1
    10    3   24 1
    11    4    5 1
    12    4   25 1
    13    4   26 1
    14    5    6 1
    15    5    8 1
    16    5   27 1
    17    6    7 1
    18    6   28 1
    19    6   29 1
    20    7   30 1
    21    7   31 1
    22    8    9 1
    23    8   32 1
    24    8   33 1
    25    9   10 1
    26    9   34 1
    27    9   41 1
    28   10   11 1
    29   10   12 1
    30   10   13 1
    31   12   35 1
    32   12   36 1
    33   12   37 1
    34   13   14 2
    35   13   15 am
    36   15   16 am
    37   15   38 1
    38   16   17 2
    39   16   18 am
    40   18   39 1
    41   18   40 1
@<TRIPOS>MOLECULE
ZINC03847223
   37    38     0     0     0
SMALL
USER_CHARGES
4-[2-[(3-hydroxyphenyl)methylamino]ethyl]benzene-1,2-diol
@<TRIPOS>ATOM
      1 C1         -2.4238    1.2816   -2.8921 C.ar      1 <0>        -0.0956
      2 C2         -1.7498    0.8241   -1.7746 C.ar      1 <0>        -0.1032
      3 C3         -0.7416    1.5850   -1.2129 C.ar      1 <0>        -0.1503
      4 C4         -0.3977    2.8002   -1.7733 C.ar      1 <0>        -0.1238
      5 C5         -1.0687    3.2590   -2.8973 C.ar      1 <0>         0.1173
      6 C6         -2.0839    2.4957   -3.4561 C.ar      1 <0>        -0.1118
      7 O1         -0.7321    4.4537   -3.4506 O.3       1 <0>        -0.4949
      8 C7         -0.0127    1.0858    0.0080 C.3       1 <0>         0.0510
      9 C8         -0.0162    1.0911    2.4293 C.3       1 <0>        -0.0042
     10 C9         -0.7598    1.6033    3.6644 C.3       1 <0>        -0.0997
     11 C10        -0.0580    1.1228    4.9085 C.ar      1 <0>        -0.1020
     12 C11        -0.4191   -0.0821    5.4822 C.ar      1 <0>        -0.1006
     13 C12         0.2255   -0.5300    6.6202 C.ar      1 <0>        -0.1263
     14 C13         1.2282    0.2345    7.1947 C.ar      1 <0>         0.0989
     15 C14         1.5878    1.4499    6.6205 C.ar      1 <0>         0.0873
     16 C15         0.9415    1.8904    5.4766 C.ar      1 <0>        -0.1213
     17 O2          2.5716    2.2037    7.1804 O.3       1 <0>        -0.4859
     18 O3          1.8592   -0.2018    8.3176 O.3       1 <0>        -0.4860
     19 H1         -3.2136    0.6870   -3.3269 H         1 <0>         0.1417
     20 H2         -2.0141   -0.1276   -1.3377 H         1 <0>         0.1354
     21 H3          0.3925    3.3926   -1.3363 H         1 <0>         0.1379
     22 H4         -2.6075    2.8506   -4.3314 H         1 <0>         0.1424
     23 H5         -0.0450    4.3936   -4.1284 H         1 <0>         0.4037
     24 H6          0.0021   -0.0041    0.0020 H         1 <0>         0.1398
     25 H7          1.0099    1.4631    0.0003 H         1 <0>         0.1381
     26 H8         -0.0015    0.0013    2.4401 H         1 <0>         0.1346
     27 H9          1.0064    1.4684    2.4383 H         1 <0>         0.1338
     28 H10        -0.7745    2.6932    3.6536 H         1 <0>         0.0972
     29 H11        -1.7824    1.2260    3.6554 H         1 <0>         0.0987
     30 H12        -1.2037   -0.6767    5.0381 H         1 <0>         0.1332
     31 H13        -0.0557   -1.4736    7.0641 H         1 <0>         0.1411
     32 H14         1.2184    2.8335    5.0292 H         1 <0>         0.1357
     33 H15         2.2555    2.8352    7.8409 H         1 <0>         0.3954
     34 H16         1.4407    0.0852    9.1407 H         1 <0>         0.3971
     35 N1         -0.7091    1.5657    1.2166 N.4       1 <0>        -0.5191
     36 H17        -1.6724    1.2103    1.2160 H         1 <0>         0.4322
     37 H18        -0.7230    2.5923    1.2143 H         1 <0>         0.4324
@<TRIPOS>BOND
     1    1    6 ar
     2    1    2 ar
     3    1   19 1
     4    2    3 ar
     5    2   20 1
     6    3    4 ar
     7    3    8 1
     8    4    5 ar
     9    4   21 1
    10    5    6 ar
    11    5    7 1
    12    6   22 1
    13    7   23 1
    14    8   24 1
    15    8   25 1
    16    8   35 1
    17    9   10 1
    18    9   26 1
    19    9   27 1
    20    9   35 1
    21   10   11 1
    22   10   28 1
    23   10   29 1
    24   11   16 ar
    25   11   12 ar
    26   12   13 ar
    27   12   30 1
    28   13   14 ar
    29   13   31 1
    30   14   15 ar
    31   14   18 1
    32   15   16 ar
    33   15   17 1
    34   16   32 1
    35   17   33 1
    36   18   34 1
    37   35   36 1
    38   35   37 1
@<TRIPOS>MOLECULE
ZINC35379765
   35    37     0     0     0
SMALL
USER_CHARGES

@<TRIPOS>ATOM
      1 C1         -0.0184    1.5028    0.0103 C.3       1 <0>        -0.0906
      2 C2          0.0021   -0.0041    0.0020 C.2       1 <0>         0.0334
      3 C3         -1.0783   -0.8055    0.0027 C.2       1 <0>        -0.2323
      4 C4         -0.6011   -2.1363   -0.0068 C.2       1 <0>        -0.2439
      5 C5          0.7423   -2.0686   -0.0126 C.2       1 <0>         0.0590
      6 O1          1.1020   -0.7746   -0.0131 O.3       1 <0>        -0.1588
      7 C6          1.6840   -3.2450   -0.0226 C.3       1 <0>        -0.0953
      8 C7         -1.4371   -3.3901   -0.0093 C.3       1 <0>         0.1814
      9 H1         -0.9807   -4.1325    0.6454 H         1 <0>         0.1527
     10 C8         -1.5170   -3.9378   -1.4110 C.ar      1 <0>        -0.1349
     11 C9         -2.4004   -3.3805   -2.3195 C.ar      1 <0>        -0.1054
     12 C10        -2.4808   -3.8755   -3.6063 C.ar      1 <0>        -0.0896
     13 C11        -1.6731   -4.9353   -3.9897 C.ar      1 <0>         0.1198
     14 C12        -0.7821   -5.4975   -3.0734 C.ar      1 <0>         0.1041
     15 C13        -0.7045   -4.9900   -1.7853 C.ar      1 <0>        -0.0744
     16 N1         -0.1176   -6.5261   -3.7372 N.am      1 <0>        -0.6395
     17 H2          0.5640   -7.1009   -3.3553 H         1 <0>         0.4425
     18 C14        -0.5831   -6.5868   -4.9991 C.2       1 <0>         0.6852
     19 O2         -0.2114   -7.3778   -5.8458 O.2       1 <0>        -0.5274
     20 N2         -1.5225   -5.6398   -5.1818 N.am      1 <0>        -0.6392
     21 H3         -2.0111   -5.4760   -6.0036 H         1 <0>         0.4437
     22 N3         -2.7894   -3.0779    0.4722 N.4       1 <0>        -0.6314
     23 H4          1.0042    1.8801    0.0026 H         1 <0>         0.0852
     24 H5         -0.5455    1.8639   -0.8728 H         1 <0>         0.0953
     25 H6         -0.5286    1.8543    0.9071 H         1 <0>         0.0955
     26 H7         -2.1119   -0.4924    0.0097 H         1 <0>         0.1520
     27 H8          1.9064   -3.5237   -1.0527 H         1 <0>         0.0948
     28 H9          2.6082   -2.9750    0.4883 H         1 <0>         0.0920
     29 H10         1.2186   -4.0873    0.4893 H         1 <0>         0.0923
     30 H11        -3.0297   -2.5552   -2.0206 H         1 <0>         0.1302
     31 H12        -3.1715   -3.4383   -4.3121 H         1 <0>         0.1455
     32 H13        -0.0133   -5.4194   -1.0752 H         1 <0>         0.1432
     33 H14        -3.3492   -3.9174    0.4705 H         1 <0>         0.4414
     34 H15        -2.7360   -2.7112    1.4107 H         1 <0>         0.4414
     35 H16        -3.2119   -2.3908   -0.1338 H         1 <0>         0.4320
@<TRIPOS>BOND
     1    1    2 1
     2    1   23 1
     3    1   24 1
     4    1   25 1
     5    2    6 1
     6    2    3 2
     7    3    4 1
     8    3   26 1
     9    4    5 2
    10    4    8 1
    11    5    6 1
    12    5    7 1
    13    7   27 1
    14    7   28 1
    15    7   29 1
    16    8    9 1
    17    8   10 1
    18    8   22 1
    19   10   15 ar
    20   10   11 ar
    21   11   12 ar
    22   11   30 1
    23   12   13 ar
    24   12   31 1
    25   13   20 1
    26   13   14 ar
    27   14   15 ar
    28   14   16 1
    29   15   32 1
    30   16   17 1
    31   16   18 am
    32   18   19 2
    33   18   20 am
    34   20   21 1
    35   22   33 1
    36   22   34 1
    37   22   35 1
@<TRIPOS>MOLECULE
ZINC42429174
   34    35     0     0     0
SMALL
USER_CHARGES

@<TRIPOS>ATOM
      1 C1         -0.5003    1.1168    0.5649 C.ar      1 <0>        -0.1158
      2 C2          0.5655    1.9944    0.4776 C.ar      1 <0>        -0.0685
      3 C3          1.8285    1.5053    0.2249 C.ar      1 <0>        -0.1024
      4 C4          2.0393    0.1355    0.0631 C.ar      1 <0>        -0.0599
      5 C5          0.9788   -0.7455    0.1640 C.ar      1 <0>        -0.1287
      6 C6         -0.2947   -0.2366    0.4083 C.ar      1 <0>        -0.0741
      7 C7          1.0960   -2.2368    0.0518 C.3       1 <0>         0.0296
      8 C8          2.3085   -2.6965   -0.7385 C.3       1 <0>        -0.1291
      9 C9          3.5824   -2.2113   -0.0314 C.3       1 <0>        -0.1329
     10 S1          3.6816   -0.4138   -0.2788 S.3       1 <0>        -0.0700
     11 C10        -0.1451   -2.7683   -0.6178 C.2       1 <0>         0.5044
     12 O1         -0.3768   -2.4893   -1.7818 O.co2     1 <0>        -0.5979
     13 O2         -0.9174   -3.4773    0.0045 O.co2     1 <0>        -0.6744
     14 N1          1.1745   -2.8046    1.4044 N.4       1 <0>        -0.4773
     15 C11         1.4223   -4.2498    1.3152 C.3       1 <0>        -0.0510
     16 C12         1.3670   -4.8641    2.7154 C.3       1 <0>        -0.0261
     17 N2          1.6148   -6.3093    2.6262 N.4       1 <0>        -0.6278
     18 H1         -1.4938    1.4924    0.7604 H         1 <0>         0.1384
     19 H2          0.4086    3.0552    0.6063 H         1 <0>         0.1420
     20 H3          2.6623    2.1878    0.1510 H         1 <0>         0.1389
     21 H4         -1.1337   -0.9132    0.4756 H         1 <0>         0.1364
     22 H5          2.3152   -3.7850   -0.7954 H         1 <0>         0.0981
     23 H6          2.2680   -2.2781   -1.7442 H         1 <0>         0.1327
     24 H7          3.5249   -2.4369    1.0335 H         1 <0>         0.0729
     25 H8          4.4564   -2.6950   -0.4677 H         1 <0>         0.1360
     26 H9          1.9284   -2.3647    1.9106 H         1 <0>         0.4089
     27 H10         0.6610   -4.7108    0.6858 H         1 <0>         0.1756
     28 H11         2.4068   -4.4235    0.8808 H         1 <0>         0.1422
     29 H12         2.1282   -4.4031    3.3447 H         1 <0>         0.1482
     30 H13         0.3825   -4.6904    3.1497 H         1 <0>         0.1567
     31 H14         1.5783   -6.7144    3.5495 H         1 <0>         0.4516
     32 H15         0.9101   -6.7360    2.0436 H         1 <0>         0.4476
     33 H16         0.3043   -2.6418    1.8885 H         1 <0>         0.4346
     34 H17         2.5261   -6.4701    2.2241 H         1 <0>         0.4410
@<TRIPOS>BOND
     1    1    6 ar
     2    1    2 ar
     3    1   18 1
     4    2    3 ar
     5    2   19 1
     6    3    4 ar
     7    3   20 1
     8    4   10 1
     9    4    5 ar
    10    5    6 ar
    11    5    7 1
    12    6   21 1
    13    7    8 1
    14    7   11 1
    15    7   14 1
    16    8    9 1
    17    8   22 1
    18    8   23 1
    19    9   10 1
    20    9   24 1
    21    9   25 1
    22   11   12 2
    23   11   13 1
    24   14   15 1
    25   14   26 1
    26   14   33 1
    27   15   16 1
    28   15   27 1
    29   15   28 1
    30   16   17 1
    31   16   29 1
    32   16   30 1
    33   17   31 1
    34   17   32 1
    35   17   34 1
@<TRIPOS>MOLECULE
ZINC53096742
   40    41     0     0     0
SMALL
USER_CHARGES

@<TRIPOS>ATOM
      1 C1          0.1987    0.5210   -2.2102 C.ar      1 <0>        -0.1036
      2 C2          1.3287    1.2829   -2.4430 C.ar      1 <0>        -0.0861
      3 C3          1.8706    2.0491   -1.4281 C.ar      1 <0>        -0.1743
      4 C4          1.2810    2.0551   -0.1741 C.ar      1 <0>         0.1022
      5 C5          0.1435    1.2887    0.0601 C.ar      1 <0>         0.0921
      6 C6         -0.3944    0.5225   -0.9615 C.ar      1 <0>        -0.0988
      7 O1         -0.4385    1.2909    1.2892 O.3       1 <0>        -0.4823
      8 O2          1.8132    2.8080    0.8256 O.3       1 <0>        -0.4864
      9 C7          3.1030    2.8775   -1.6852 C.3       1 <0>         0.0468
     10 N1          4.2834    2.1734   -1.1668 N.4       1 <0>        -0.4973
     11 C8          5.4933    2.9400   -1.4928 C.3       1 <0>         0.0676
     12 C9          6.7111    2.2651   -0.8584 C.3       1 <0>        -0.1336
     13 C10         6.8468    0.8418   -1.4033 C.3       1 <0>        -0.1373
     14 C11         7.0250    0.8920   -2.9220 C.3       1 <0>        -0.1329
     15 C12         5.8073    1.5670   -3.5564 C.3       1 <0>        -0.1334
     16 C13         5.6715    2.9902   -3.0115 C.3       1 <0>        -0.1387
     17 C14         5.3575    4.3632   -0.9479 C.3       1 <0>         0.0580
     18 O3          5.0645    4.3122    0.4498 O.3       1 <0>        -0.5735
     19 H1         -0.2241   -0.0731   -3.0068 H         1 <0>         0.1451
     20 H2          1.7892    1.2791   -3.4199 H         1 <0>         0.1401
     21 H3         -1.2773   -0.0732   -0.7823 H         1 <0>         0.1470
     22 H4         -1.1153    1.9722    1.4027 H         1 <0>         0.3989
     23 H5          1.4589    3.7065    0.8725 H         1 <0>         0.3989
     24 H6          3.2166    3.0365   -2.7576 H         1 <0>         0.1375
     25 H7          3.0048    3.8403   -1.1836 H         1 <0>         0.1369
     26 H8          4.2052    2.0781   -0.1653 H         1 <0>         0.4368
     27 H9          7.6088    2.8339   -1.1003 H         1 <0>         0.1103
     28 H10         6.5841    2.2293    0.2236 H         1 <0>         0.0968
     29 H11         7.7144    0.3610   -0.9514 H         1 <0>         0.0938
     30 H12         5.9491    0.2730   -1.1614 H         1 <0>         0.0567
     31 H13         7.9228    1.4609   -3.1639 H         1 <0>         0.0806
     32 H14         7.1218   -0.1219   -3.3102 H         1 <0>         0.0816
     33 H15         5.9342    1.6027   -4.6384 H         1 <0>         0.0956
     34 H16         4.9095    0.9981   -3.3145 H         1 <0>         0.0577
     35 H17         4.8039    3.4710   -3.4634 H         1 <0>         0.0900
     36 H18         6.5693    3.5590   -3.2534 H         1 <0>         0.1145
     37 H19         6.2918    4.9026   -1.1038 H         1 <0>         0.0923
     38 H20         4.5501    4.8766   -1.4699 H         1 <0>         0.0716
     39 H21         4.9647    5.1809    0.8627 H         1 <0>         0.4077
     40 H22         4.3412    1.2584   -1.5882 H         1 <0>         0.4211
@<TRIPOS>BOND
     1    1    6 ar
     2    1    2 ar
     3    1   19 1
     4    2    3 ar
     5    2   20 1
     6    3    4 ar
     7    3    9 1
     8    4    5 ar
     9    4    8 1
    10    5    6 ar
    11    5    7 1
    12    6   21 1
    13    7   22 1
    14    8   23 1
    15    9   10 1
    16    9   24 1
    17    9   25 1
    18   10   11 1
    19   10   26 1
    20   10   40 1
    21   11   16 1
    22   11   12 1
    23   11   17 1
    24   12   13 1
    25   12   27 1
    26   12   28 1
    27   13   14 1
    28   13   29 1
    29   13   30 1
    30   14   15 1
    31   14   31 1
    32   14   32 1
    33   15   16 1
    34   15   33 1
    35   15   34 1
    36   16   35 1
    37   16   36 1
    38   17   18 1
    39   17   37 1
    40   17   38 1
    41   18   39 1
@<TRIPOS>MOLECULE
ZINC55134548
   48    49     0     0     0
SMALL
USER_CHARGES

@<TRIPOS>ATOM
      1 C1         -0.4637    1.5623    1.9847 C.3       1 <0>        -0.1597
      2 C2         -0.4843    0.0326    2.0064 C.3       1 <0>        -0.0759
      3 H1         -0.4575   -0.3165    3.0387 H         1 <0>         0.0942
      4 C3         -1.7619   -0.4699    1.3311 C.3       1 <0>        -0.1287
      5 C4         -1.7995    0.0201   -0.1178 C.3       1 <0>        -0.1129
      6 C5         -0.5800   -0.5171   -0.8697 C.3       1 <0>        -0.1692
      7 C6          0.6976   -0.0146   -0.1943 C.3       1 <0>         0.0455
      8 H2          0.7122    1.0752   -0.2098 H         1 <0>         0.1500
      9 C7          0.7352   -0.5046    1.2546 C.3       1 <0>        -0.1294
     10 H3          1.6453   -0.1465    1.7357 H         1 <0>         0.1163
     11 C8          0.7149   -2.0113    1.2760 C.2       1 <0>         0.5041
     12 O1          0.2551   -2.6250    0.3364 O.2       1 <0>        -0.5371
     13 N1          1.2078   -2.6768    2.3393 N.am      1 <0>        -0.5912
     14 C9          1.6492   -1.9507    3.5380 C.3       1 <0>         0.0948
     15 C10         3.0854   -2.3700    3.8674 C.3       1 <0>        -0.1315
     16 C11         3.1511   -3.8936    3.9956 C.3       1 <0>        -0.0760
     17 C12         2.7532   -4.5369    2.6651 C.3       1 <0>        -0.1335
     18 C13         1.3081   -4.1425    2.3243 C.3       1 <0>         0.1069
     19 C14         4.5768   -4.3136    4.3586 C.3       1 <0>        -0.1403
     20 C15         4.6153   -5.7998    4.6052 C.2       1 <0>         0.5139
     21 O2          3.6022   -6.4582    4.5009 O.2       1 <0>        -0.5397
     22 N2          5.7756   -6.3972    4.9417 N.am      1 <0>        -0.8558
     23 N3          1.8684   -0.5303   -0.9162 N.4       1 <0>        -0.6382
     24 H4         -0.4905    1.9114    0.9524 H         1 <0>         0.0622
     25 H5         -1.3325    1.9450    2.5203 H         1 <0>         0.0759
     26 H6          0.4464    1.9203    2.4658 H         1 <0>         0.0639
     27 H7         -1.7766   -1.5597    1.3466 H         1 <0>         0.0735
     28 H8         -2.6307   -0.0872    1.8667 H         1 <0>         0.0821
     29 H9         -2.7097   -0.3379   -0.5989 H         1 <0>         0.0844
     30 H10        -1.7849    1.1099   -0.1333 H         1 <0>         0.0736
     31 H11        -0.5947   -1.6069   -0.8542 H         1 <0>         0.1356
     32 H12        -0.6068   -0.1680   -1.9019 H         1 <0>         0.0824
     33 H13         1.6162   -0.8779    3.3482 H         1 <0>         0.0892
     34 H14         0.9958   -2.1961    4.3752 H         1 <0>         0.0850
     35 H15         3.7520   -2.0430    3.0693 H         1 <0>         0.0678
     36 H16         3.3914   -1.9122    4.8080 H         1 <0>         0.0863
     37 H17         2.4659   -4.2221    4.7770 H         1 <0>         0.0872
     38 H18         3.4229   -4.1895    1.8784 H         1 <0>         0.0597
     39 H19         2.8227   -5.6213    2.7502 H         1 <0>         0.1021
     40 H20         0.6274   -4.5630    3.0646 H         1 <0>         0.0799
     41 H21         1.0499   -4.5163    1.3335 H         1 <0>         0.0973
     42 H22         5.2492   -4.0639    3.5378 H         1 <0>         0.0942
     43 H23         4.8923   -3.7875    5.2596 H         1 <0>         0.0992
     44 H24         6.5859   -5.8706    5.0251 H         1 <0>         0.4029
     45 H25         5.8004   -7.3538    5.1004 H         1 <0>         0.4053
     46 H26         1.8028   -0.2742   -1.8899 H         1 <0>         0.4387
     47 H27         2.7083   -0.1354   -0.5204 H         1 <0>         0.4313
     48 H28         1.8982   -1.5355   -0.8340 H         1 <0>         0.4339
@<TRIPOS>BOND
     1    1    2 1
     2    1   24 1
     3    1   25 1
     4    1   26 1
     5    2    3 1
     6    2    9 1
     7    2    4 1
     8    4    5 1
     9    4   27 1
    10    4   28 1
    11    5    6 1
    12    5   29 1
    13    5   30 1
    14    6    7 1
    15    6   31 1
    16    6   32 1
    17    7    8 1
    18    7    9 1
    19    7   23 1
    20    9   10 1
    21    9   11 1
    22   11   12 2
    23   11   13 am
    24   13   18 1
    25   13   14 1
    26   14   15 1
    27   14   33 1
    28   14   34 1
    29   15   16 1
    30   15   35 1
    31   15   36 1
    32   16   17 1
    33   16   19 1
    34   16   37 1
    35   17   18 1
    36   17   38 1
    37   17   39 1
    38   18   40 1
    39   18   41 1
    40   19   20 1
    41   19   42 1
    42   19   43 1
    43   20   21 2
    44   20   22 am
    45   22   44 1
    46   22   45 1
    47   23   46 1
    48   23   47 1
    49   23   48 1
@<TRIPOS>MOLECULE
ZINC03356811
   50    53     0     0     0
SMALL
USER_CHARGES
3-[2-amino-4-(2,5-dimethoxyphenyl)-thiazol-5-yl]-3-hydroxy-5,7-dimethyl-indolin-2-one
@<TRIPOS>ATOM
      1 C1          1.4011    9.8248   -3.1499 C.3       1 <0>        -0.1112
      2 C2          0.4993    9.1424   -2.1538 C.ar      1 <0>        -0.1021
      3 C3         -0.5995    9.8091   -1.6429 C.ar      1 <0>        -0.0754
      4 C4         -1.4288    9.1902   -0.7309 C.ar      1 <0>        -0.1002
      5 C5         -1.1638    7.8862   -0.3166 C.ar      1 <0>         0.1511
      6 C6         -0.0572    7.2273   -0.8370 C.ar      1 <0>        -0.1337
      7 C7          0.7688    7.8472   -1.7476 C.ar      1 <0>        -0.0440
      8 C8         -0.0425    5.8552   -0.2037 C.3       1 <0>         0.2565
      9 C9         -1.2539    5.8560    0.7044 C.2       1 <0>         0.5188
     10 O1         -1.6252    4.9429    1.4112 O.2       1 <0>        -0.4576
     11 N1         -1.8407    7.0584    0.5797 N.am      1 <0>        -0.6508
     12 C10         1.2181    5.6571    0.5980 C.2       1 <0>        -0.2774
     13 C11         1.7077    4.5257    1.1859 C.2       1 <0>         0.2002
     14 N2          2.8599    4.5828    1.8500 N.2       1 <0>        -0.5413
     15 C12         3.5327    5.7143    1.9533 C.2       1 <0>         0.3859
     16 S1          2.4834    6.8391    1.0435 S.3       1 <0>         0.0330
     17 N3          4.7340    5.9636    2.5970 N.pl3     1 <0>        -0.7907
     18 C13         0.9665    3.2456    1.0802 C.ar      1 <0>        -0.0552
     19 C14        -0.2973    3.2157    0.4947 C.ar      1 <0>        -0.1469
     20 C15        -0.9869    2.0185    0.4034 C.ar      1 <0>         0.0955
     21 C16        -0.4168    0.8479    0.8842 C.ar      1 <0>        -0.1525
     22 C17         0.8389    0.8709    1.4613 C.ar      1 <0>        -0.1839
     23 C18         1.5356    2.0635    1.5626 C.ar      1 <0>         0.1354
     24 O2          2.7708    2.0846    2.1306 O.3       1 <0>        -0.2755
     25 C19         3.2895    0.8393    2.6019 C.3       1 <0>         0.0209
     26 O3         -2.2227    1.9887   -0.1632 O.3       1 <0>        -0.3093
     27 C20        -2.8752    0.7191   -0.2303 C.3       1 <0>         0.0265
     28 O4         -0.1633    4.8410   -1.2031 O.3       1 <0>        -0.5202
     29 C21        -2.6239    9.9255   -0.1813 C.3       1 <0>        -0.1150
     30 H1          1.0417    9.6279   -4.1599 H         1 <0>         0.0726
     31 H2          1.3982   10.8992   -2.9662 H         1 <0>         0.0686
     32 H3          2.4158    9.4409   -3.0440 H         1 <0>         0.0682
     33 H4         -0.8095   10.8198   -1.9601 H         1 <0>         0.1345
     34 H5          1.6256    7.3232   -2.1445 H         1 <0>         0.1312
     35 H6         -2.6429    7.3207    1.0578 H         1 <0>         0.4177
     36 H7          5.1966    5.2451    3.0558 H         1 <0>         0.4194
     37 H8          5.1123    6.8568    2.5889 H         1 <0>         0.4222
     38 H9         -0.7399    4.1253    0.1164 H         1 <0>         0.2020
     39 H10        -0.9565   -0.0844    0.8072 H         1 <0>         0.1317
     40 H11         1.2778   -0.0430    1.8337 H         1 <0>         0.1336
     41 H12         2.6238    0.4333    3.3635 H         1 <0>         0.0513
     42 H13         3.3613    0.1377    1.7707 H         1 <0>         0.0514
     43 H14         4.2791    0.9969    3.0308 H         1 <0>         0.0975
     44 H15        -2.2677    0.0289   -0.8158 H         1 <0>         0.0538
     45 H16        -3.0053    0.3238    0.7771 H         1 <0>         0.0532
     46 H17        -3.8501    0.8362   -0.7034 H         1 <0>         0.0996
     47 H18         0.3126    4.0253   -0.9953 H         1 <0>         0.3999
     48 H19        -3.4887    9.7411   -0.8187 H         1 <0>         0.0744
     49 H20        -2.8349    9.5729    0.8282 H         1 <0>         0.0620
     50 H21        -2.4127   10.9946   -0.1561 H         1 <0>         0.0746
@<TRIPOS>BOND
     1    1    2 1
     2    1   30 1
     3    1   31 1
     4    1   32 1
     5    2    7 ar
     6    2    3 ar
     7    3    4 ar
     8    3   33 1
     9    4    5 ar
    10    4   29 1
    11    5   11 1
    12    5    6 ar
    13    6    7 ar
    14    6    8 1
    15    7   34 1
    16    8    9 1
    17    8   12 1
    18    8   28 1
    19    9   10 2
    20    9   11 am
    21   11   35 1
    22   12   16 1
    23   12   13 2
    24   13   14 1
    25   13   18 1
    26   14   15 2
    27   15   16 1
    28   15   17 1
    29   17   36 1
    30   17   37 1
    31   18   23 ar
    32   18   19 ar
    33   19   20 ar
    34   19   38 1
    35   20   21 ar
    36   20   26 1
    37   21   22 ar
    38   21   39 1
    39   22   23 ar
    40   22   40 1
    41   23   24 1
    42   24   25 1
    43   25   41 1
    44   25   42 1
    45   25   43 1
    46   26   27 1
    47   27   44 1
    48   27   45 1
    49   27   46 1
    50   28   47 1
    51   29   48 1
    52   29   49 1
    53   29   50 1
@<TRIPOS>MOLECULE
ZINC02793771
   57    60     0     0     0
SMALL
USER_CHARGES
3-[[(5R,7R)-7-(difluoromethyl)-5-phenyl-4,5,6,7-tetrahydropyrazolo[1,5-a]pyrimidine-3-carbonyl]amino]-1-(2,3-dimethylphenyl)thiourea
@<TRIPOS>ATOM
      1 C1         -4.5331   12.9589    3.3290 C.3       1 <0>        -0.1154
      2 C2         -3.6974   12.6912    2.1039 C.ar      1 <0>        -0.0819
      3 C3         -3.1832   13.7476    1.3742 C.ar      1 <0>        -0.1072
      4 C4         -2.4160   13.5063    0.2495 C.ar      1 <0>        -0.1115
      5 C5         -2.1606   12.2086   -0.1488 C.ar      1 <0>        -0.0721
      6 C6         -2.6754   11.1457    0.5817 C.ar      1 <0>         0.1254
      7 C7         -3.4502   11.3916    1.7080 C.ar      1 <0>        -0.0867
      8 C8         -4.0161   10.2412    2.5001 C.3       1 <0>        -0.1204
      9 N1         -2.4192    9.8302    0.1807 N.pl3     1 <0>        -0.6291
     10 C9         -2.5238    9.4894   -1.1190 C.2       1 <0>         0.5547
     11 S1         -3.1051   10.6274   -2.2583 S.2       1 <0>        -0.5673
     12 N2         -2.1707    8.2527   -1.5219 N.pl3     1 <0>        -0.4584
     13 N3         -1.6950    7.3214   -0.5896 N.am      1 <0>        -0.5499
     14 C10        -1.3420    6.0846   -0.9925 C.2       1 <0>         0.6136
     15 O1         -1.4364    5.7769   -2.1660 O.2       1 <0>        -0.5314
     16 C11        -0.8436    5.1090   -0.0157 C.2       1 <0>        -0.3374
     17 C12        -0.6773    5.3175    1.3752 C.2       1 <0>         0.1034
     18 N4         -0.2127    4.2173    1.9001 N.2       1 <0>        -0.2692
     19 N5         -0.0582    3.2613    0.8962 N.pl3     1 <0>        -0.3831
     20 C13        -0.4441    3.8053   -0.2790 C.2       1 <0>         0.3797
     21 N6         -0.4309    3.1595   -1.4973 N.pl3     1 <0>        -0.5773
     22 C14        -0.3587    1.7020   -1.3138 C.3       1 <0>         0.0974
     23 H1         -1.2991    1.3415   -0.8970 H         1 <0>         0.1008
     24 C15         0.7878    1.3619   -0.3558 C.3       1 <0>        -0.1301
     25 C16         0.4395    1.8867    1.0446 C.3       1 <0>         0.1122
     26 H2          1.3298    1.8799    1.6734 H         1 <0>         0.1422
     27 C17        -0.6460    1.0096    1.6717 C.3       1 <0>         0.2534
     28 F1         -0.9578    1.4937    2.9467 F         1 <0>        -0.1844
     29 F2         -1.7911    1.0392    0.8686 F         1 <0>        -0.1948
     30 C18        -0.1135    1.0400   -2.6452 C.ar      1 <0>        -0.0973
     31 C19         0.7603    1.6118   -3.5510 C.ar      1 <0>        -0.0878
     32 C20         0.9885    1.0022   -4.7705 C.ar      1 <0>        -0.1207
     33 C21         0.3361   -0.1744   -5.0879 C.ar      1 <0>        -0.1095
     34 C22        -0.5416   -0.7435   -4.1842 C.ar      1 <0>        -0.1201
     35 C23        -0.7666   -0.1362   -2.9629 C.ar      1 <0>        -0.1063
     36 H3         -5.5823   13.0349    3.0436 H         1 <0>         0.0718
     37 H4         -4.4081   12.1419    4.0397 H         1 <0>         0.0676
     38 H5         -4.2133   13.8935    3.7899 H         1 <0>         0.0685
     39 H6         -3.3816   14.7632    1.6833 H         1 <0>         0.1253
     40 H7         -2.0156   14.3334   -0.3179 H         1 <0>         0.1290
     41 H8         -1.5610   12.0207   -1.0271 H         1 <0>         0.1390
     42 H9         -3.3073    9.9504    3.2754 H         1 <0>         0.0726
     43 H10        -4.9554   10.5454    2.9621 H         1 <0>         0.0780
     44 H11        -4.1950    9.3958    1.8358 H         1 <0>         0.0597
     45 H12        -2.1661    9.1634    0.8381 H         1 <0>         0.3989
     46 H13        -2.2460    8.0073   -2.4573 H         1 <0>         0.4613
     47 H14        -1.6197    7.5667    0.3458 H         1 <0>         0.4179
     48 H15        -0.8975    6.2300    1.9094 H         1 <0>         0.1914
     49 H16        -1.2351    3.4148   -2.0506 H         1 <0>         0.3982
     50 H17         0.9232    0.2810   -0.3175 H         1 <0>         0.1170
     51 H18         1.7069    1.8330   -0.7043 H         1 <0>         0.1068
     52 H19        -0.2841   -0.0155    1.7508 H         1 <0>         0.1354
     53 H20         1.2672    2.5331   -3.3045 H         1 <0>         0.1299
     54 H21         1.6746    1.4467   -5.4763 H         1 <0>         0.1251
     55 H22         0.5124   -0.6493   -6.0417 H         1 <0>         0.1243
     56 H23        -1.0513   -1.6628   -4.4322 H         1 <0>         0.1255
     57 H24        -1.4523   -0.5808   -2.2569 H         1 <0>         0.1231
@<TRIPOS>BOND
     1    1    2 1
     2    1   36 1
     3    1   37 1
     4    1   38 1
     5    2    7 ar
     6    2    3 ar
     7    3    4 ar
     8    3   39 1
     9    4    5 ar
    10    4   40 1
    11    5    6 ar
    12    5   41 1
    13    6    7 ar
    14    6    9 1
    15    7    8 1
    16    8   42 1
    17    8   43 1
    18    8   44 1
    19    9   10 1
    20    9   45 1
    21   10   11 2
    22   10   12 1
    23   12   13 1
    24   12   46 1
    25   13   14 am
    26   13   47 1
    27   14   15 2
    28   14   16 1
    29   16   20 2
    30   16   17 1
    31   17   18 2
    32   17   48 1
    33   18   19 1
    34   19   25 1
    35   19   20 1
    36   20   21 1
    37   21   22 1
    38   21   49 1
    39   22   23 1
    40   22   24 1
    41   22   30 1
    42   24   25 1
    43   24   50 1
    44   24   51 1
    45   25   26 1
    46   25   27 1
    47   27   28 1
    48   27   29 1
    49   27   52 1
    50   30   35 ar
    51   30   31 ar
    52   31   32 ar
    53   31   53 1
    54   32   33 ar
    55   32   54 1
    56   33   34 ar
    57   33   55 1
    58   34   35 ar
    59   34   56 1
    60   35   57 1
@<TRIPOS>MOLECULE
ZINC02793867
   54    57     0     0     0
SMALL
USER_CHARGES
3-[[(5R,7R)-7-(difluoromethyl)-5-phenyl-4,5,6,7-tetrahydropyrazolo[1,5-a]pyrimidine-3-carbonyl]amino]-1-(o-tolyl)thiourea
@<TRIPOS>ATOM
      1 C1         -3.9955   10.2409    2.5137 C.3       1 <0>        -0.1176
      2 C2         -3.4405   11.3914    1.7142 C.ar      1 <0>        -0.0895
      3 C3         -3.6917   12.6915    2.1074 C.ar      1 <0>        -0.1155
      4 C4         -3.1825   13.7476    1.3747 C.ar      1 <0>        -0.1098
      5 C5         -2.4198   13.5063    0.2464 C.ar      1 <0>        -0.1157
      6 C6         -2.1605   12.2089   -0.1490 C.ar      1 <0>        -0.0697
      7 C7         -2.6754   11.1457    0.5817 C.ar      1 <0>         0.1306
      8 N1         -2.4192    9.8302    0.1807 N.pl3     1 <0>        -0.6420
      9 C8         -2.5239    9.4894   -1.1190 C.2       1 <0>         0.5636
     10 S1         -3.1054   10.6273   -2.2582 S.2       1 <0>        -0.5929
     11 N2         -2.1709    8.2526   -1.5219 N.pl3     1 <0>        -0.4689
     12 N3         -1.6950    7.3214   -0.5896 N.am      1 <0>        -0.5588
     13 C9         -1.3420    6.0846   -0.9925 C.2       1 <0>         0.6213
     14 O1         -1.4366    5.7769   -2.1660 O.2       1 <0>        -0.5524
     15 C10        -0.8435    5.1090   -0.0158 C.2       1 <0>        -0.3665
     16 C11        -0.6769    5.3176    1.3751 C.2       1 <0>         0.1086
     17 N4         -0.2122    4.2174    1.9000 N.2       1 <0>        -0.2779
     18 N5         -0.0579    3.2614    0.8960 N.pl3     1 <0>        -0.3952
     19 C12        -0.4439    3.8053   -0.2791 C.2       1 <0>         0.4590
     20 N6         -0.4309    3.1595   -1.4974 N.pl3     1 <0>        -0.7009
     21 C13        -0.3585    1.7021   -1.3138 C.3       1 <0>         0.1475
     22 H1         -1.3242    1.3689   -0.9058 H         1 <0>         0.1117
     23 C14         0.7881    1.3620   -0.3560 C.3       1 <0>        -0.1428
     24 C15         0.4399    1.8868    1.0444 C.3       1 <0>         0.1244
     25 H2          1.3214    1.9063    1.7022 H         1 <0>         0.1417
     26 C16        -0.6454    1.0097    1.6717 C.3       1 <0>         0.2480
     27 F1         -0.9572    1.4938    2.9467 F         1 <0>        -0.1900
     28 F2         -1.7907    1.0392    0.8688 F         1 <0>        -0.1980
     29 C17        -0.1135    1.0400   -2.6453 C.ar      1 <0>        -0.0982
     30 C18         0.7602    1.6119   -3.5512 C.ar      1 <0>        -0.1099
     31 C19         0.9883    1.0022   -4.7707 C.ar      1 <0>        -0.1142
     32 C20         0.3359   -0.1744   -5.0880 C.ar      1 <0>        -0.1111
     33 C21        -0.5417   -0.7435   -4.1842 C.ar      1 <0>        -0.1146
     34 C22        -0.7666   -0.1362   -2.9629 C.ar      1 <0>        -0.1033
     35 H3         -4.5697   10.6307    3.3671 H         1 <0>         0.0737
     36 H4         -3.1676    9.6178    2.8828 H         1 <0>         0.0646
     37 H5         -4.6543    9.6345    1.8748 H         1 <0>         0.0690
     38 H6         -4.2864   12.8833    2.9883 H         1 <0>         0.1263
     39 H7         -3.3803   14.7632    1.6842 H         1 <0>         0.1245
     40 H8         -2.0231   14.3334   -0.3236 H         1 <0>         0.1273
     41 H9         -1.5611   12.0211   -1.0276 H         1 <0>         0.1383
     42 H10        -2.1323    9.0740    0.9262 H         1 <0>         0.4135
     43 H11        -2.2564    7.9743   -2.5827 H         1 <0>         0.4907
     44 H12        -1.6095    7.5997    0.4712 H         1 <0>         0.4337
     45 H13        -0.8971    6.2301    1.9093 H         1 <0>         0.1870
     46 H14        -0.4661    3.5851   -2.5111 H         1 <0>         0.4705
     47 H15         0.9248    0.2711   -0.3205 H         1 <0>         0.1166
     48 H16         1.7150    1.8364   -0.7106 H         1 <0>         0.1025
     49 H17        -0.3629   -0.0469    1.7896 H         1 <0>         0.1337
     50 H18         1.2670    2.5332   -3.3048 H         1 <0>         0.1231
     51 H19         1.6742    1.4467   -5.4767 H         1 <0>         0.1261
     52 H20         0.5121   -0.6493   -6.0418 H         1 <0>         0.1256
     53 H21        -1.0514   -1.6629   -4.4321 H         1 <0>         0.1270
     54 H22        -1.4522   -0.5808   -2.2568 H         1 <0>         0.1256
@<TRIPOS>BOND
     1    1    2 1
     2    1   35 1
     3    1   36 1
     4    1   37 1
     5    2    7 ar
     6    2    3 ar
     7    3    4 ar
     8    3   38 1
     9    4    5 ar
    10    4   39 1
    11    5    6 ar
    12    5   40 1
    13    6    7 ar
    14    6   41 1
    15    7    8 1
    16    8    9 1
    17    8   42 1
    18    9   10 2
    19    9   11 1
    20   11   12 1
    21   11   43 1
    22   12   13 am
    23   12   44 1
    24   13   14 2
    25   13   15 1
    26   15   19 2
    27   15   16 1
    28   16   17 2
    29   16   45 1
    30   17   18 1
    31   18   24 1
    32   18   19 1
    33   19   20 1
    34   20   21 1
    35   20   46 1
    36   21   22 1
    37   21   23 1
    38   21   29 1
    39   23   24 1
    40   23   47 1
    41   23   48 1
    42   24   25 1
    43   24   26 1
    44   26   27 1
    45   26   28 1
    46   26   49 1
    47   29   34 ar
    48   29   30 ar
    49   30   31 ar
    50   30   50 1
    51   31   32 ar
    52   31   51 1
    53   32   33 ar
    54   32   52 1
    55   33   34 ar
    56   33   53 1
    57   34   54 1
@<TRIPOS>MOLECULE
ZINC39252264
   58    61     0     0     0
SMALL
USER_CHARGES

@<TRIPOS>ATOM
      1 C1          1.0338   -0.3798   -0.7558 C.3       1 <0>        -0.1518
      2 C2         -0.0239   -0.0061    0.2847 C.3       1 <0>        -0.0973
      3 C3         -0.0760    1.5156    0.4350 C.3       1 <0>        -0.1459
      4 C4         -1.3910   -0.5207   -0.1703 C.3       1 <0>        -0.0879
      5 C5         -1.3820   -2.0506   -0.1818 C.3       1 <0>         0.1091
      6 H1         -0.6272   -2.4302   -0.8705 H         1 <0>         0.0883
      7 N1         -2.7296   -2.5910   -0.5145 N.3       1 <0>        -0.4991
      8 N2         -2.9919   -3.8516    0.1699 N.3       1 <0>        -0.4871
      9 C6         -2.6812   -3.7165    1.6279 C.3       1 <0>         0.3802
     10 H2         -3.4654   -3.1710    2.1530 H         1 <0>         0.1476
     11 S1         -1.1283   -2.7237    1.5146 S.3       1 <0>        -0.3137
     12 N3         -2.4382   -5.0222    2.2463 N.am      1 <0>        -0.7181
     13 C7         -3.4742   -5.8351    2.5336 C.2       1 <0>         0.5356
     14 O1         -4.6076   -5.4856    2.2802 O.2       1 <0>        -0.5013
     15 C8         -3.2242   -7.1782    3.1696 C.3       1 <0>        -0.1230
     16 H3         -2.7138   -7.0656    4.1261 H         1 <0>         0.1244
     17 C9         -2.4238   -8.0997    2.2203 C.3       1 <0>        -0.1463
     18 C10        -3.0125   -9.4736    2.4534 C.2       1 <0>         0.5194
     19 O2         -2.4927  -10.5177    2.1206 O.2       1 <0>        -0.5207
     20 N4         -4.1953   -9.3690    3.0835 N.am      1 <0>        -0.6181
     21 C11        -4.5431   -7.9651    3.3360 C.3       1 <0>         0.1174
     22 C12        -5.0300  -10.5094    3.4694 C.3       1 <0>         0.1311
     23 C13        -4.6477  -10.9676    4.8782 C.3       1 <0>        -0.0586
     24 C14        -5.5063  -12.1407    5.2753 C.2       1 <0>        -0.1715
     25 C15        -5.2568  -13.5493    4.9598 C.ar      1 <0>        -0.0757
     26 C16        -4.2529  -14.2234    4.2616 C.ar      1 <0>        -0.1051
     27 C17        -4.3106  -15.5951    4.1403 C.ar      1 <0>         0.0734
     28 C18        -5.3607  -16.3065    4.7087 C.ar      1 <0>        -0.1300
     29 C19        -6.3578  -15.6543    5.4001 C.ar      1 <0>        -0.0996
     30 C20        -6.3189  -14.2708    5.5343 C.ar      1 <0>         0.0857
     31 N5         -7.1450  -13.3555    6.1501 N.pl3     1 <0>        -0.5921
     32 C21        -6.6416  -12.0934    5.9900 C.2       1 <0>         0.0677
     33 F1         -3.3417  -16.2515    3.4653 F         1 <0>        -0.1406
     34 H4          2.0077   -0.0132   -0.4317 H         1 <0>         0.0579
     35 H5          1.0709   -1.4639   -0.8629 H         1 <0>         0.0502
     36 H6          0.7762    0.0714   -1.7140 H         1 <0>         0.0568
     37 H7          0.2337   -0.4573    1.2429 H         1 <0>         0.0778
     38 H8          0.9096    1.8870    0.7157 H         1 <0>         0.0571
     39 H9         -0.3772    1.9642   -0.5116 H         1 <0>         0.0558
     40 H10        -0.7975    1.7798    1.2081 H         1 <0>         0.0576
     41 H11        -2.1595   -0.1671    0.5171 H         1 <0>         0.0849
     42 H12        -1.6030   -0.1510   -1.1735 H         1 <0>         0.0803
     43 H13        -2.8431   -2.6907   -1.5121 H         1 <0>         0.3663
     44 H14        -2.4631   -4.6046   -0.2442 H         1 <0>         0.3259
     45 H15        -1.5318   -5.3017    2.4489 H         1 <0>         0.4122
     46 H16        -2.5656   -7.7948    1.1835 H         1 <0>         0.1083
     47 H17        -1.3655   -8.0889    2.4808 H         1 <0>         0.1124
     48 H18        -4.9273   -7.8474    4.3493 H         1 <0>         0.0887
     49 H19        -5.2807   -7.6229    2.6101 H         1 <0>         0.0939
     50 H20        -6.0788  -10.2131    3.4558 H         1 <0>         0.0823
     51 H21        -4.8745  -11.3278    2.7665 H         1 <0>         0.0857
     52 H22        -3.5988  -11.2639    4.8918 H         1 <0>         0.0753
     53 H23        -4.8031  -10.1492    5.5812 H         1 <0>         0.0741
     54 H24        -3.4361  -13.6730    3.8187 H         1 <0>         0.1368
     55 H25        -5.3956  -17.3811    4.6069 H         1 <0>         0.1391
     56 H26        -7.1689  -16.2171    5.8380 H         1 <0>         0.1311
     57 H27        -7.0925  -11.1922    6.3786 H         1 <0>         0.1738
     58 H28        -7.9597  -13.5739    6.6292 H         1 <0>         0.4193
@<TRIPOS>BOND
     1    1    2 1
     2    1   34 1
     3    1   35 1
     4    1   36 1
     5    2    3 1
     6    2    4 1
     7    2   37 1
     8    3   38 1
     9    3   39 1
    10    3   40 1
    11    4    5 1
    12    4   41 1
    13    4   42 1
    14    5    6 1
    15    5   11 1
    16    5    7 1
    17    7    8 1
    18    7   43 1
    19    8    9 1
    20    8   44 1
    21    9   10 1
    22    9   11 1
    23    9   12 1
    24   12   13 am
    25   12   45 1
    26   13   14 2
    27   13   15 1
    28   15   16 1
    29   15   21 1
    30   15   17 1
    31   17   18 1
    32   17   46 1
    33   17   47 1
    34   18   19 2
    35   18   20 am
    36   20   21 1
    37   20   22 1
    38   21   48 1
    39   21   49 1
    40   22   23 1
    41   22   50 1
    42   22   51 1
    43   23   52 1
    44   23   53 1
    45   23   24 1
    46   24   25 1
    47   24   32 2
    48   25   26 ar
    49   25   30 ar
    50   26   27 ar
    51   26   54 1
    52   27   28 ar
    53   27   33 1
    54   28   29 ar
    55   28   55 1
    56   29   30 ar
    57   29   56 1
    58   30   31 1
    59   31   58 1
    60   31   32 1
    61   32   57 1
@<TRIPOS>MOLECULE
ZINC40735180
   69    73     0     0     0
SMALL
USER_CHARGES

@<TRIPOS>ATOM
      1 C1          1.5231   -1.9525    0.3208 C.3       1 <0>        -0.1319
      2 C2          0.8809   -3.3009   -0.0400 C.3       1 <0>        -0.0700
      3 C3          1.5453   -3.9586   -1.2806 C.3       1 <0>        -0.1259
      4 C4          0.4288   -4.9591   -1.6713 C.3       1 <0>         0.1533
      5 H1          0.5370   -5.3011   -2.7085 H         1 <0>         0.0991
      6 C5          0.4870   -6.1144   -0.6750 C.3       1 <0>        -0.1159
      7 C6          0.3867   -5.6816    0.7764 C.3       1 <0>        -0.0501
      8 C7          0.9523   -4.3123    1.1025 C.3       1 <0>        -0.0952
      9 C8          1.1805   -6.7149    1.6150 C.3       1 <0>        -0.1477
     10 C9         -1.0728   -5.7735    1.2456 C.3       1 <0>        -0.1428
     11 N1         -0.8321   -4.2159   -1.4771 N.pl3     1 <0>        -0.5932
     12 C10        -0.5880   -3.1488   -0.4947 C.3       1 <0>         0.1213
     13 C11        -2.0386   -4.4712   -2.1180 C.ar      1 <0>         0.4513
     14 C12        -3.1926   -3.7709   -1.7617 C.ar      1 <0>        -0.0186
     15 C13        -4.3776   -4.0661   -2.4374 C.ar      1 <0>         0.4152
     16 N2         -4.3627   -4.9970   -3.3887 N.ar      1 <0>        -0.5932
     17 C14        -3.2513   -5.6350   -3.6944 C.ar      1 <0>         0.3470
     18 N3         -2.1105   -5.3831   -3.0845 N.ar      1 <0>        -0.5821
     19 N4         -5.5551   -3.3986   -2.1216 N.pl3     1 <0>        -0.5117
     20 N5         -6.7385   -3.7034   -2.8067 N.am      1 <0>        -0.5051
     21 C15        -7.8803   -3.0562   -2.5004 C.2       1 <0>         0.5195
     22 O1         -7.8833   -2.2099   -1.6317 O.2       1 <0>        -0.5307
     23 C16        -9.1533   -3.3841   -3.2374 C.3       1 <0>        -0.0112
     24 C17        -9.4925   -4.8379   -3.0318 C.ar      1 <0>        -0.0853
     25 C18        -9.5409   -5.3623   -1.7537 C.ar      1 <0>        -0.1072
     26 C19        -9.8521   -6.6959   -1.5651 C.ar      1 <0>        -0.1149
     27 C20       -10.1153   -7.5050   -2.6546 C.ar      1 <0>        -0.1128
     28 C21       -10.0678   -6.9804   -3.9327 C.ar      1 <0>        -0.1148
     29 C22        -9.7608   -5.6457   -4.1210 C.ar      1 <0>        -0.1050
     30 C23       -10.2746   -2.5270   -2.7091 C.ar      1 <0>        -0.0684
     31 C24       -10.5903   -2.5542   -1.3635 C.ar      1 <0>        -0.0816
     32 C25       -11.6189   -1.7680   -0.8789 C.ar      1 <0>        -0.1223
     33 C26       -12.3314   -0.9543   -1.7397 C.ar      1 <0>        -0.1142
     34 C27       -12.0151   -0.9264   -3.0851 C.ar      1 <0>        -0.1225
     35 C28       -10.9837   -1.7094   -3.5690 C.ar      1 <0>        -0.1070
     36 N6         -3.1620   -2.7964   -0.7506 N.pl3     1 <0>        -0.8939
     37 H2          2.5740   -2.1048    0.5666 H         1 <0>         0.0648
     38 H3          1.4432   -1.2733   -0.5280 H         1 <0>         0.0612
     39 H4          1.0076   -1.5228    1.1797 H         1 <0>         0.0604
     40 H5          1.7204   -3.2284   -2.0701 H         1 <0>         0.0747
     41 H6          2.4663   -4.4744   -1.0103 H         1 <0>         0.0872
     42 H7         -0.3253   -6.8220   -0.8953 H         1 <0>         0.0653
     43 H8          1.4304   -6.6627   -0.8195 H         1 <0>         0.0685
     44 H9          2.0036   -4.4251    1.4116 H         1 <0>         0.0648
     45 H10         0.4162   -3.9035    1.9738 H         1 <0>         0.0621
     46 H11         2.2202   -6.7264    1.2880 H         1 <0>         0.0542
     47 H12         1.1339   -6.4403    2.6688 H         1 <0>         0.0532
     48 H13         0.7456   -7.7050    1.4780 H         1 <0>         0.0536
     49 H14        -1.4209   -6.8021    1.1508 H         1 <0>         0.0494
     50 H15        -1.1397   -5.4619    2.2879 H         1 <0>         0.0496
     51 H16        -1.6937   -5.1217    0.6310 H         1 <0>         0.0604
     52 H17        -1.2666   -3.2313    0.3479 H         1 <0>         0.0825
     53 H18        -0.7233   -2.1752   -0.9757 H         1 <0>         0.0566
     54 H19        -3.2750   -6.3848   -4.4713 H         1 <0>         0.1954
     55 H20        -5.5575   -2.7218   -1.4268 H         1 <0>         0.4386
     56 H21        -6.7361   -4.3803   -3.5015 H         1 <0>         0.4337
     57 H22        -9.0176   -3.1895   -4.3013 H         1 <0>         0.1167
     58 H23        -9.3352   -4.7302   -0.9025 H         1 <0>         0.1210
     59 H24        -9.8892   -7.1058   -0.5666 H         1 <0>         0.1233
     60 H25       -10.3578   -8.5471   -2.5073 H         1 <0>         0.1238
     61 H26       -10.2732   -7.6126   -4.7839 H         1 <0>         0.1263
     62 H27        -9.7274   -5.2350   -5.1193 H         1 <0>         0.1267
     63 H28       -10.0336   -3.1899   -0.6910 H         1 <0>         0.1202
     64 H29       -11.8660   -1.7898    0.1722 H         1 <0>         0.1218
     65 H30       -13.1355   -0.3406   -1.3612 H         1 <0>         0.1218
     66 H31       -12.5720   -0.2909   -3.7577 H         1 <0>         0.1235
     67 H32       -10.7342   -1.6848   -4.6195 H         1 <0>         0.1223
     68 H33        -2.3726   -2.2453   -0.6319 H         1 <0>         0.3974
     69 H34        -3.9302   -2.6745   -0.1711 H         1 <0>         0.3878
@<TRIPOS>BOND
     1    1    2 1
     2    1   37 1
     3    1   38 1
     4    1   39 1
     5    2    8 1
     6    2   12 1
     7    2    3 1
     8    3    4 1
     9    3   40 1
    10    3   41 1
    11    4    5 1
    12    4    6 1
    13    4   11 1
    14    6    7 1
    15    6   42 1
    16    6   43 1
    17    7    8 1
    18    7    9 1
    19    7   10 1
    20    8   44 1
    21    8   45 1
    22    9   46 1
    23    9   47 1
    24    9   48 1
    25   10   49 1
    26   10   50 1
    27   10   51 1
    28   11   12 1
    29   11   13 1
    30   12   52 1
    31   12   53 1
    32   13   18 ar
    33   13   14 ar
    34   14   15 ar
    35   14   36 1
    36   15   16 ar
    37   15   19 1
    38   16   17 ar
    39   17   18 ar
    40   17   54 1
    41   19   20 1
    42   19   55 1
    43   20   21 am
    44   20   56 1
    45   21   22 2
    46   21   23 1
    47   23   24 1
    48   23   30 1
    49   23   57 1
    50   24   29 ar
    51   24   25 ar
    52   25   26 ar
    53   25   58 1
    54   26   27 ar
    55   26   59 1
    56   27   28 ar
    57   27   60 1
    58   28   29 ar
    59   28   61 1
    60   29   62 1
    61   30   35 ar
    62   30   31 ar
    63   31   32 ar
    64   31   63 1
    65   32   33 ar
    66   32   64 1
    67   33   34 ar
    68   33   65 1
    69   34   35 ar
    70   34   66 1
    71   35   67 1
    72   36   68 1
    73   36   69 1
@<TRIPOS>MOLECULE
ZINC03407298
   71    74     0     0     0
SMALL
USER_CHARGES

@<TRIPOS>ATOM
      1 C1         -3.6518   -5.3644    2.6610 C.3       1 <0>        -0.1714
      2 C2         -3.9464   -4.3313    1.5715 C.3       1 <0>        -0.1670
      3 C3         -5.4587   -4.2240    1.3661 C.3       1 <0>         0.0230
      4 H1         -5.9340   -3.9425    2.3057 H         1 <0>         0.1409
      5 C4         -5.7552   -3.1612    0.3061 C.3       1 <0>        -0.1783
      6 C5         -5.6517   -5.7682   -0.4889 C.3       1 <0>         0.0664
      7 C6         -4.2093   -6.1912   -0.5965 C.ar      1 <0>         0.3921
      8 N1         -3.8282   -7.3620   -0.1160 N.ar      1 <0>        -0.6296
      9 C7         -2.5551   -7.7391   -0.2092 C.ar      1 <0>         0.6412
     10 N2         -1.6670   -6.9368   -0.7862 N.ar      1 <0>        -0.6177
     11 C8         -2.0539   -5.7607   -1.2679 C.ar      1 <0>         0.6363
     12 N3         -3.3279   -5.3882   -1.1660 N.ar      1 <0>        -0.6112
     13 N4         -1.1343   -4.9231   -1.8686 N.pl3     1 <0>        -0.6058
     14 C9          0.2246   -5.2527   -1.8559 C.ar      1 <0>         0.1393
     15 C10         0.7303   -6.0827   -0.8634 C.ar      1 <0>        -0.1182
     16 C11         2.0727   -6.4059   -0.8535 C.ar      1 <0>        -0.1061
     17 C12         2.9135   -5.9046   -1.8305 C.ar      1 <0>        -0.1222
     18 C13         2.4135   -5.0778   -2.8195 C.ar      1 <0>        -0.0978
     19 C14         1.0716   -4.7506   -2.8352 C.ar      1 <0>        -0.1055
     20 C15         0.5262   -3.8549   -3.9174 C.3       1 <0>        -0.1201
     21 N5         -2.1582   -8.9619    0.2923 N.pl3     1 <0>        -0.7900
     22 C16        -7.4357   -5.6035    1.1399 C.3       1 <0>         0.0764
     23 C17        -7.7127   -5.7523    2.6137 C.ar      1 <0>         0.3809
     24 N6         -7.6776   -6.9491    3.1734 N.ar      1 <0>        -0.6190
     25 C18        -7.9172   -7.0840    4.4757 C.ar      1 <0>         0.6383
     26 N7         -8.2018   -6.0147    5.2112 N.ar      1 <0>        -0.6169
     27 C19        -8.2411   -4.8141    4.6440 C.ar      1 <0>         0.6356
     28 N8         -7.9953   -4.6866    3.3419 N.ar      1 <0>        -0.6148
     29 N9         -8.5360   -3.6993    5.4045 N.pl3     1 <0>        -0.6066
     30 C20        -8.9205   -3.8463    6.7409 C.ar      1 <0>         0.1392
     31 C21        -9.4954   -5.0348    7.1731 C.ar      1 <0>        -0.1175
     32 C22        -9.8695   -5.1784    8.4946 C.ar      1 <0>        -0.1050
     33 C23        -9.6820   -4.1370    9.3851 C.ar      1 <0>        -0.1222
     34 C24        -9.1148   -2.9509    8.9570 C.ar      1 <0>        -0.0981
     35 C25        -8.7336   -2.8026    7.6377 C.ar      1 <0>        -0.1070
     36 C26        -8.1159   -1.5093    7.1718 C.3       1 <0>        -0.1188
     37 N10        -7.8747   -8.3333    5.0603 N.pl3     1 <0>        -0.7894
     38 H2         -4.1955   -5.1009    3.5681 H         1 <0>         0.0661
     39 H3         -3.9679   -6.3508    2.3214 H         1 <0>         0.0504
     40 H4         -2.5820   -5.3775    2.8695 H         1 <0>         0.0803
     41 H5         -3.4742   -4.6416    0.6394 H         1 <0>         0.0993
     42 H6         -3.5511   -3.3616    1.8739 H         1 <0>         0.1116
     43 H7         -6.7953   -3.2432   -0.0096 H         1 <0>         0.0837
     44 H8         -5.5799   -2.1707    0.7257 H         1 <0>         0.1066
     45 H9         -5.1018   -3.3128   -0.5531 H         1 <0>         0.0937
     46 H10        -5.8067   -4.8558   -1.0647 H         1 <0>         0.1708
     47 H11        -6.2922   -6.5583   -0.8807 H         1 <0>         0.1626
     48 H12        -1.4312   -4.1062   -2.2993 H         1 <0>         0.4303
     49 H13         0.0742   -6.4746   -0.1002 H         1 <0>         0.1453
     50 H14         2.4665   -7.0512   -0.0821 H         1 <0>         0.1268
     51 H15         3.9630   -6.1592   -1.8207 H         1 <0>         0.1275
     52 H16         3.0728   -4.6877   -3.5808 H         1 <0>         0.1309
     53 H17         0.5841   -2.8160   -3.5926 H         1 <0>         0.0753
     54 H18         1.1133   -3.9846   -4.8266 H         1 <0>         0.0777
     55 H19        -0.5133   -4.1162   -4.1158 H         1 <0>         0.0611
     56 H20        -1.2304   -9.2362    0.2238 H         1 <0>         0.4263
     57 H21        -2.8072   -9.5471    0.7134 H         1 <0>         0.4242
     58 H22        -7.9116   -4.6951    0.7706 H         1 <0>         0.1645
     59 H23        -7.8354   -6.4658    0.6062 H         1 <0>         0.1629
     60 H24        -8.4765   -2.8145    5.0115 H         1 <0>         0.4296
     61 H25        -9.6462   -5.8468    6.4773 H         1 <0>         0.1458
     62 H26       -10.3128   -6.1036    8.8322 H         1 <0>         0.1276
     63 H27        -9.9796   -4.2503   10.4171 H         1 <0>         0.1278
     64 H28        -8.9701   -2.1394    9.6548 H         1 <0>         0.1307
     65 H29        -8.9006   -0.8339    6.8310 H         1 <0>         0.0757
     66 H30        -7.5727   -1.0482    7.9967 H         1 <0>         0.0771
     67 H31        -7.4276   -1.7103    6.3509 H         1 <0>         0.0591
     68 H32        -8.0527   -8.4313    6.0088 H         1 <0>         0.4262
     69 H33        -7.6669   -9.1135    4.5227 H         1 <0>         0.4248
     70 N11        -5.9731   -5.5412    0.9359 N.4       1 <0>        -0.3900
     71 H34        -5.5262   -6.2740    1.4994 H         1 <0>         0.4344
@<TRIPOS>BOND
     1    1    2 1
     2    1   38 1
     3    1   39 1
     4    1   40 1
     5    2    3 1
     6    2   41 1
     7    2   42 1
     8    3    4 1
     9    3    5 1
    10    3   70 1
    11    5   43 1
    12    5   44 1
    13    5   45 1
    14    6    7 1
    15    6   46 1
    16    6   47 1
    17    6   70 1
    18    7   12 ar
    19    7    8 ar
    20    8    9 ar
    21    9   10 ar
    22    9   21 1
    23   10   11 ar
    24   11   12 ar
    25   11   13 1
    26   13   14 1
    27   13   48 1
    28   14   19 ar
    29   14   15 ar
    30   15   16 ar
    31   15   49 1
    32   16   17 ar
    33   16   50 1
    34   17   18 ar
    35   17   51 1
    36   18   19 ar
    37   18   52 1
    38   19   20 1
    39   20   53 1
    40   20   54 1
    41   20   55 1
    42   21   56 1
    43   21   57 1
    44   22   23 1
    45   22   58 1
    46   22   59 1
    47   22   70 1
    48   23   28 ar
    49   23   24 ar
    50   24   25 ar
    51   25   26 ar
    52   25   37 1
    53   26   27 ar
    54   27   28 ar
    55   27   29 1
    56   29   30 1
    57   29   60 1
    58   30   35 ar
    59   30   31 ar
    60   31   32 ar
    61   31   61 1
    62   32   33 ar
    63   32   62 1
    64   33   34 ar
    65   33   63 1
    66   34   35 ar
    67   34   64 1
    68   35   36 1
    69   36   65 1
    70   36   66 1
    71   36   67 1
    72   37   68 1
    73   37   69 1
    74   70   71 1
@<TRIPOS>MOLECULE
ZINC10004103
   52    55     0     0     0
SMALL
USER_CHARGES
2-[6-amino-8-[(4-hydroxy-3-methoxy-phenyl)methyleneaminoamino]purin-9-yl]-5-(hydroxymethyl)tetrahydrofuran-3,4-diol
@<TRIPOS>ATOM
      1 C1          4.7479    8.7989    1.7181 C.3       1 <0>         0.0237
      2 O1          3.9378    9.5655    2.6116 O.3       1 <0>        -0.3061
      3 C2          2.7133    9.0615    2.9212 C.ar      1 <0>         0.0999
      4 C3          2.3057    7.8556    2.3819 C.ar      1 <0>        -0.1708
      5 C4          1.0450    7.3431    2.6985 C.ar      1 <0>        -0.0163
      6 C5          0.2069    8.0466    3.5673 C.ar      1 <0>        -0.0984
      7 C6          0.6227    9.2463    4.1055 C.ar      1 <0>        -0.1094
      8 C7          1.8721    9.7576    3.7864 C.ar      1 <0>         0.0904
      9 O2          2.2770   10.9408    4.3198 O.3       1 <0>        -0.4863
     10 C8          0.6026    6.0604    2.1219 C.2       1 <0>         0.0911
     11 N1         -0.5670    5.5832    2.4213 N.2       1 <0>        -0.1885
     12 N2         -0.9874    4.3642    1.8734 N.pl3     1 <0>        -0.5217
     13 C9         -2.2308    3.8568    2.1917 C.2       1 <0>         0.5927
     14 N3         -3.0948    4.4269    2.9951 N.2       1 <0>        -0.4906
     15 C10        -4.2094    3.6590    3.0758 C.ar      1 <0>        -0.0602
     16 C11        -5.4313    3.7652    3.7610 C.ar      1 <0>         0.4389
     17 N4         -6.3299    2.7982    3.6076 N.ar      1 <0>        -0.5392
     18 C12        -6.0886    1.7577    2.8309 C.ar      1 <0>         0.3337
     19 N5         -4.9587    1.6169    2.1698 N.ar      1 <0>        -0.5345
     20 C13        -4.0013    2.5335    2.2618 C.ar      1 <0>         0.2937
     21 N6         -2.7461    2.6803    1.7189 N.pl3     1 <0>        -0.4780
     22 C14        -2.0849    1.7515    0.7989 C.3       1 <0>         0.3129
     23 H1         -2.6124    0.7980    0.7732 H         1 <0>         0.1391
     24 C15        -1.9897    2.3650   -0.6212 C.3       1 <0>         0.0680
     25 H2         -2.8967    2.1666   -1.1923 H         1 <0>         0.1066
     26 C16        -0.7781    1.6063   -1.2241 C.3       1 <0>         0.0488
     27 H3         -0.1516    2.2837   -1.8043 H         1 <0>         0.0918
     28 C17        -0.0127    1.0858    0.0080 C.3       1 <0>         0.0501
     29 H4          0.0021   -0.0041    0.0020 H         1 <0>         0.1009
     30 O3         -0.7045    1.5588    1.1759 O.3       1 <0>        -0.3585
     31 C18         1.4190    1.6254   -0.0028 C.3       1 <0>         0.0790
     32 O4          2.1523    1.0518    1.0813 O.3       1 <0>        -0.5603
     33 O5         -1.2220    0.5161   -2.0343 O.3       1 <0>        -0.5453
     34 O6         -1.7291    3.7685   -0.5540 O.3       1 <0>        -0.5431
     35 N7         -5.6935    4.8532    4.5776 N.pl3     1 <0>        -0.7506
     36 H5          5.6956    9.3124    1.5557 H         1 <0>         0.1025
     37 H6          4.9365    7.8165    2.1509 H         1 <0>         0.0560
     38 H7          4.2295    8.6832    0.7663 H         1 <0>         0.0562
     39 H8          2.9587    7.3128    1.7145 H         1 <0>         0.1362
     40 H9         -0.7665    7.6511    3.8171 H         1 <0>         0.1439
     41 H10        -0.0262    9.7894    4.7767 H         1 <0>         0.1419
     42 H11         2.7455   10.8531    5.1612 H         1 <0>         0.3900
     43 H12         1.2515    5.5178    1.4505 H         1 <0>         0.1163
     44 H13        -0.4046    3.8768    1.2704 H         1 <0>         0.4045
     45 H14        -6.8464    0.9943    2.7342 H         1 <0>         0.2092
     46 H15         1.8991    1.3628   -0.9454 H         1 <0>         0.0681
     47 H16         1.3994    2.7098    0.1053 H         1 <0>         0.0520
     48 H17         3.0707    1.3497    1.1362 H         1 <0>         0.3862
     49 H18        -0.5055   -0.0289   -2.3873 H         1 <0>         0.3925
     50 H19        -1.6608    4.1977   -1.4178 H         1 <0>         0.3932
     51 H20        -6.5020    5.3357    4.2407 H         1 <0>         0.3645
     52 H21        -5.0296    5.5527    4.6816 H         1 <0>         0.3827
@<TRIPOS>BOND
     1    1    2 1
     2    1   36 1
     3    1   37 1
     4    1   38 1
     5    2    3 1
     6    3    8 ar
     7    3    4 ar
     8    4    5 ar
     9    4   39 1
    10    5    6 ar
    11    5   10 1
    12    6    7 ar
    13    6   40 1
    14    7    8 ar
    15    7   41 1
    16    8    9 1
    17    9   42 1
    18   10   11 2
    19   10   43 1
    20   11   12 1
    21   12   13 1
    22   12   44 1
    23   13   21 1
    24   13   14 2
    25   14   15 1
    26   15   20 ar
    27   15   16 ar
    28   16   17 ar
    29   16   35 1
    30   17   18 ar
    31   18   19 ar
    32   18   45 1
    33   19   20 ar
    34   20   21 1
    35   21   22 1
    36   22   23 1
    37   22   30 1
    38   22   24 1
    39   24   25 1
    40   24   26 1
    41   24   34 1
    42   26   27 1
    43   26   28 1
    44   26   33 1
    45   28   29 1
    46   28   30 1
    47   28   31 1
    48   31   32 1
    49   31   46 1
    50   31   47 1
    51   32   48 1
    52   33   49 1
    53   34   50 1
    54   35   51 1
    55   35   52 1
@<TRIPOS>MOLECULE
ZINC26897818
   71    72     0     0     0
SMALL
USER_CHARGES
(2R)-1-(benzylamino)-3-[3-[(2R)-3-(benzylamino)-2-hydroxy-propoxy]-2,2-dimethyl-propoxy]propan-2-ol
@<TRIPOS>ATOM
      1 C1          7.5729   -4.8382   -6.6014 C.3       1 <0>        -0.1364
      2 C2          8.7803   -4.0977   -6.0229 C.3       1 <0>        -0.0564
      3 C3          8.9603   -2.7660   -6.7544 C.3       1 <0>        -0.1364
      4 C4          8.5512   -3.8343   -4.5332 C.3       1 <0>         0.0714
      5 O1          7.3777   -3.0363   -4.3655 O.3       1 <0>        -0.3658
      6 C5          7.0721   -2.7312   -3.0033 C.3       1 <0>         0.0669
      7 C6          5.8037   -1.8776   -2.9441 C.3       1 <0>         0.0982
      8 H1          4.9846   -2.3401   -3.5144 H         1 <0>         0.0878
      9 C7          5.4064   -1.6554   -1.4834 C.3       1 <0>        -0.0387
     10 N1          4.1252   -0.9387   -1.4281 N.4       1 <0>        -0.5366
     11 C8          3.7112   -0.7071   -0.0378 C.3       1 <0>         0.0516
     12 C9          2.3960    0.0285   -0.0212 C.ar      1 <0>        -0.1685
     13 C10         1.2084   -0.6789   -0.0136 C.ar      1 <0>        -0.0941
     14 C11         0.0021   -0.0041    0.0020 C.ar      1 <0>        -0.1137
     15 C12        -0.0167    1.3781    0.0096 C.ar      1 <0>        -0.0807
     16 C13         1.1709    2.0855    0.0021 C.ar      1 <0>        -0.1134
     17 C14         2.3773    1.4107   -0.0141 C.ar      1 <0>        -0.0941
     18 O2          6.0491   -0.6158   -3.5683 O.3       1 <0>        -0.5703
     19 C15        10.0367   -4.9521   -6.2024 C.3       1 <0>         0.0714
     20 O3         10.2507   -5.1980   -7.5938 O.3       1 <0>        -0.3658
     21 C16        11.4057   -5.9919   -7.8728 C.3       1 <0>         0.0669
     22 C17        11.5352   -6.1902   -9.3843 C.3       1 <0>         0.0982
     23 H2         11.4885   -5.2295   -9.9180 H         1 <0>         0.0878
     24 C18        12.8371   -6.9329   -9.6916 C.3       1 <0>        -0.0387
     25 N2         13.0206   -7.0180  -11.1466 N.4       1 <0>        -0.5366
     26 C19        14.2636   -7.7265  -11.4798 C.3       1 <0>         0.0516
     27 C20        14.4173   -7.7939  -12.9775 C.ar      1 <0>        -0.1687
     28 C21        13.8970   -8.8659  -13.6781 C.ar      1 <0>        -0.0937
     29 C22        14.0334   -8.9251  -15.0524 C.ar      1 <0>        -0.1136
     30 C23        14.6996   -7.9178  -15.7249 C.ar      1 <0>        -0.0806
     31 C24        15.2249   -6.8486  -15.0236 C.ar      1 <0>        -0.1138
     32 C25        15.0836   -6.7865  -13.6499 C.ar      1 <0>        -0.0940
     33 O4         10.4264   -6.9552   -9.8611 O.3       1 <0>        -0.5703
     34 H3          7.4435   -5.7956   -6.0755 H         1 <0>         0.0514
     35 H4          7.7375   -5.0275   -7.6724 H         1 <0>         0.0662
     36 H5          6.6696   -4.2239   -6.4722 H         1 <0>         0.0630
     37 H6          9.8284   -2.2336   -6.3385 H         1 <0>         0.0514
     38 H7          8.0570   -2.1517   -6.6252 H         1 <0>         0.0662
     39 H8          9.1249   -2.9553   -7.8254 H         1 <0>         0.0630
     40 H9          8.4218   -4.7917   -4.0072 H         1 <0>         0.0560
     41 H10         9.4192   -3.3018   -4.1172 H         1 <0>         0.0566
     42 H11         6.9117   -3.6655   -2.4454 H         1 <0>         0.0756
     43 H12         7.9092   -2.1757   -2.5552 H         1 <0>         0.0692
     44 H13         5.3048   -2.6277   -0.9791 H         1 <0>         0.1412
     45 H14         6.1817   -1.0600   -0.9790 H         1 <0>         0.1414
     46 H15         4.2269    0.0335   -1.9325 H         1 <0>         0.4439
     47 H16         3.5978   -1.6727    0.4767 H         1 <0>         0.1362
     48 H17         4.4746   -0.1050    0.4767 H         1 <0>         0.1359
     49 H18         1.2231   -1.7588   -0.0196 H         1 <0>         0.1307
     50 H19        -0.9258   -0.5567    0.0079 H         1 <0>         0.1368
     51 H20        -0.9592    1.9054    0.0170 H         1 <0>         0.1371
     52 H21         1.1563    3.1654    0.0077 H         1 <0>         0.1370
     53 H22         3.3051    1.9634   -0.0204 H         1 <0>         0.1312
     54 H23         5.2481    0.1361   -3.6223 H         1 <0>         0.4043
     55 H24        10.9047   -4.4197   -5.7864 H         1 <0>         0.0560
     56 H25         9.9073   -5.9095   -5.6765 H         1 <0>         0.0567
     57 H26        12.3024   -5.4812   -7.4918 H         1 <0>         0.0756
     58 H27        11.3050   -6.9711   -7.3818 H         1 <0>         0.0692
     59 H28        13.6833   -6.3890   -9.2465 H         1 <0>         0.1412
     60 H29        12.7895   -7.9470   -9.2681 H         1 <0>         0.1414
     61 H30        12.1744   -7.5619  -11.5917 H         1 <0>         0.4440
     62 H31        15.1197   -7.1881  -11.0472 H         1 <0>         0.1361
     63 H32        14.2260   -8.7461  -11.0688 H         1 <0>         0.1359
     64 H33        13.3804   -9.6552  -13.1522 H         1 <0>         0.1312
     65 H34        13.6227   -9.7603  -15.6004 H         1 <0>         0.1370
     66 H35        14.8095   -7.9659  -16.7982 H         1 <0>         0.1371
     67 H36        15.7454   -6.0615  -15.5490 H         1 <0>         0.1368
     68 H37        15.4939   -5.9512  -13.1020 H         1 <0>         0.1307
     69 H38        10.3465   -7.2003  -10.9305 H         1 <0>         0.4043
     70 H39         3.3499   -1.5341   -1.9325 H         1 <0>         0.4504
     71 H40        13.0682   -6.0039  -11.5701 H         1 <0>         0.4504
@<TRIPOS>BOND
     1    1    2 1
     2    1   34 1
     3    1   35 1
     4    1   36 1
     5    2    3 1
     6    2    4 1
     7    2   19 1
     8    3   37 1
     9    3   38 1
    10    3   39 1
    11    4    5 1
    12    4   40 1
    13    4   41 1
    14    5    6 1
    15    6    7 1
    16    6   42 1
    17    6   43 1
    18    7    8 1
    19    7    9 1
    20    7   18 1
    21    9   10 1
    22    9   44 1
    23    9   45 1
    24   10   11 1
    25   10   46 1
    26   10   70 1
    27   11   12 1
    28   11   47 1
    29   11   48 1
    30   12   17 ar
    31   12   13 ar
    32   13   14 ar
    33   13   49 1
    34   14   15 ar
    35   14   50 1
    36   15   16 ar
    37   15   51 1
    38   16   17 ar
    39   16   52 1
    40   17   53 1
    41   18   54 1
    42   19   20 1
    43   19   55 1
    44   19   56 1
    45   20   21 1
    46   21   22 1
    47   21   57 1
    48   21   58 1
    49   22   23 1
    50   22   24 1
    51   22   33 1
    52   24   25 1
    53   24   59 1
    54   24   60 1
    55   25   26 1
    56   25   61 1
    57   25   71 1
    58   26   27 1
    59   26   62 1
    60   26   63 1
    61   27   32 ar
    62   27   28 ar
    63   28   29 ar
    64   28   64 1
    65   29   30 ar
    66   29   65 1
    67   30   31 ar
    68   30   66 1
    69   31   32 ar
    70   31   67 1
    71   32   68 1
    72   33   69 1
@<TRIPOS>MOLECULE
ZINC38964765
   57    61     0     0     0
SMALL
USER_CHARGES

@<TRIPOS>ATOM
      1 C1         -0.9735    0.9840    0.3706 C.3       1 <0>        -0.1201
      2 C2         -1.0076   -0.5127    0.1981 C.ar      1 <0>        -0.0941
      3 C3         -0.9020   -1.0591   -1.0792 C.ar      1 <0>        -0.0681
      4 C4         -0.9291   -2.4075   -1.2717 C.ar      1 <0>        -0.1033
      5 C5         -1.0656   -3.2622   -0.1679 C.ar      1 <0>         0.1862
      6 C6         -1.1731   -2.7047    1.1325 C.ar      1 <0>        -0.1802
      7 C7         -1.1358   -1.3120    1.2940 C.ar      1 <0>        -0.0649
      8 C8         -1.3087   -3.5800    2.2258 C.ar      1 <0>         0.2629
      9 N1         -1.3298   -4.8758    1.9934 N.ar      1 <0>        -0.5470
     10 C9         -1.2264   -5.3643    0.7595 C.ar      1 <0>         0.5477
     11 N2         -1.0974   -4.5936   -0.3021 N.ar      1 <0>        -0.4769
     12 N3         -1.2552   -6.7400    0.5837 N.pl3     1 <0>        -0.6043
     13 C10        -1.0276   -7.2781   -0.6583 C.2       1 <0>         0.6358
     14 N4         -0.7119   -6.4829   -1.6602 N.2       1 <0>        -0.5113
     15 C11        -0.4831   -6.9631   -2.8806 C.2       1 <0>         0.2096
     16 C12        -0.5735   -8.3040   -3.1164 C.2       1 <0>        -0.2930
     17 C13        -0.9100   -9.1599   -2.0521 C.2       1 <0>         0.5434
     18 N5         -1.1265   -8.6237   -0.8320 N.am      1 <0>        -0.6430
     19 O1         -1.0001  -10.3640   -2.2271 O.2       1 <0>        -0.5194
     20 C14        -0.1243   -6.0243   -4.0034 C.3       1 <0>        -0.0470
     21 S1          1.5969   -5.4838   -3.8130 S.3       1 <0>        -0.0999
     22 C15         1.8359   -4.2962   -5.1632 C.3       1 <0>         0.2757
     23 H1          2.8687   -3.9481   -5.1791 H         1 <0>         0.1774
     24 N6          0.9105   -3.1473   -5.0046 N.3       1 <0>        -0.4191
     25 N7          0.4921   -2.8757   -6.3911 N.4       1 <0>        -0.2928
     26 N8          0.4249   -4.2199   -6.9805 N.3       1 <0>        -0.2177
     27 N9          1.4885   -4.9162   -6.4530 N.pl3     1 <0>        -0.5001
     28 C16         2.1247   -6.0148   -7.0353 C.ar      1 <0>         0.1735
     29 C17         3.2722   -6.5421   -6.4566 C.ar      1 <0>        -0.1351
     30 C18         3.8986   -7.6287   -7.0348 C.ar      1 <0>        -0.0733
     31 C19         3.3849   -8.1916   -8.1887 C.ar      1 <0>        -0.1236
     32 C20         2.2427   -7.6692   -8.7674 C.ar      1 <0>        -0.0764
     33 C21         1.6082   -6.5863   -8.1913 C.ar      1 <0>        -0.1573
     34 C22        -1.4267   -3.0466    3.6303 C.3       1 <0>        -0.1176
     35 H2          0.0451    1.3007    0.5950 H         1 <0>         0.0763
     36 H3         -1.3088    1.4635   -0.5491 H         1 <0>         0.0694
     37 H4         -1.6320    1.2703    1.1906 H         1 <0>         0.0729
     38 H5         -0.7972   -0.4030   -1.9306 H         1 <0>         0.1318
     39 H6         -0.8464   -2.8158   -2.2681 H         1 <0>         0.1272
     40 H7         -1.2125   -0.8763    2.2792 H         1 <0>         0.1393
     41 H8         -0.3901   -8.7015   -4.1037 H         1 <0>         0.1573
     42 H9         -0.2402   -6.5381   -4.9577 H         1 <0>         0.1160
     43 H10        -0.7829   -5.1562   -3.9758 H         1 <0>         0.1042
     44 H11         0.1192   -3.3970   -4.4305 H         1 <0>         0.4001
     45 H12        -0.4136   -2.4315   -6.4104 H         1 <0>         0.4597
     46 H13         0.4851   -4.1769   -7.9868 H         1 <0>         0.3785
     47 H14         3.6743   -6.1025   -5.5558 H         1 <0>         0.1320
     48 H15         4.7907   -8.0391   -6.5854 H         1 <0>         0.1396
     49 H16         3.8770   -9.0408   -8.6392 H         1 <0>         0.1357
     50 H17         1.8442   -8.1112   -9.6687 H         1 <0>         0.1375
     51 H18         0.7137   -6.1816   -8.6413 H         1 <0>         0.1249
     52 H19        -2.4774   -2.8833    3.8699 H         1 <0>         0.0980
     53 H20        -1.0024   -3.7672    4.3295 H         1 <0>         0.0930
     54 H21        -0.8856   -2.1035    3.7075 H         1 <0>         0.0904
     55 H22        -1.4361   -7.3218    1.3386 H         1 <0>         0.4392
     56 H23         1.1792   -2.3108   -6.8674 H         1 <0>         0.4314
     57 H24        -1.3558   -9.1955   -0.0828 H         1 <0>         0.4194
@<TRIPOS>BOND
     1    1    2 1
     2    1   35 1
     3    1   36 1
     4    1   37 1
     5    2    7 ar
     6    2    3 ar
     7    3    4 ar
     8    3   38 1
     9    4    5 ar
    10    4   39 1
    11    5   11 ar
    12    5    6 ar
    13    6    7 ar
    14    6    8 ar
    15    7   40 1
    16    8    9 ar
    17    8   34 1
    18    9   10 ar
    19   10   11 ar
    20   10   12 1
    21   12   13 1
    22   12   55 1
    23   13   18 1
    24   13   14 2
    25   14   15 1
    26   15   16 2
    27   15   20 1
    28   16   17 1
    29   16   41 1
    30   17   18 am
    31   17   19 2
    32   18   57 1
    33   20   21 1
    34   20   42 1
    35   20   43 1
    36   21   22 1
    37   22   23 1
    38   22   27 1
    39   22   24 1
    40   24   25 1
    41   24   44 1
    42   25   26 1
    43   25   45 1
    44   25   56 1
    45   26   27 1
    46   26   46 1
    47   27   28 1
    48   28   33 ar
    49   28   29 ar
    50   29   30 ar
    51   29   47 1
    52   30   31 ar
    53   30   48 1
    54   31   32 ar
    55   31   49 1
    56   32   33 ar
    57   32   50 1
    58   33   51 1
    59   34   52 1
    60   34   53 1
    61   34   54 1
@<TRIPOS>MOLECULE
ZINC52566210
   69    75     0     0     0
SMALL
USER_CHARGES

@<TRIPOS>ATOM
      1 C1         -0.0163    1.3482    0.0095 C.ar      1 <0>        -0.0956
      2 C2          1.1658    2.1014    0.0022 C.ar      1 <0>         0.0475
      3 C3          2.3912    1.5352   -0.0125 C.ar      1 <0>        -0.1909
      4 C4          2.5288    0.1198   -0.0218 C.ar      1 <0>         0.3310
      5 N1          3.5868   -0.6543   -0.0369 N.pl3     1 <0>        -0.5597
      6 C5          3.1432   -2.0528   -0.0408 C.3       1 <0>         0.0607
      7 C6          1.6315   -2.0084   -0.0255 C.2       1 <0>        -0.0089
      8 C7          1.2951   -0.6984   -0.0144 C.ar      1 <0>        -0.1398
      9 C8          0.0021   -0.0041    0.0020 C.ar      1 <0>        -0.0838
     10 C9          0.6905   -3.1856   -0.0239 C.3       1 <0>        -0.1036
     11 C10         0.4565   -3.6534   -1.4617 C.3       1 <0>         0.0423
     12 H1          1.4151   -3.8639   -1.9359 H         1 <0>         0.1660
     13 C11        -0.3976   -4.9228   -1.4524 C.3       1 <0>         0.0253
     14 O1         -0.5190   -5.4250   -2.7847 O.3       1 <0>        -0.3213
     15 C12        -1.2521   -6.5571   -2.9530 C.ar      1 <0>         0.0663
     16 C13        -1.4116   -7.1102   -4.2173 C.ar      1 <0>        -0.0905
     17 C14        -2.1735   -8.2743   -4.3386 C.ar      1 <0>        -0.0423
     18 C15        -2.7407   -8.8325   -3.1942 C.ar      1 <0>         0.0922
     19 N2         -2.5637   -8.2739   -2.0147 N.ar      1 <0>        -0.4347
     20 C16        -1.8458   -7.1781   -1.8630 C.ar      1 <0>         0.0285
     21 C17        -2.3766   -8.9068   -5.6652 C.ar      1 <0>        -0.0752
     22 C18        -1.8021   -8.3462   -6.8050 C.ar      1 <0>        -0.0489
     23 C19        -1.9904   -8.9322   -8.0365 C.ar      1 <0>        -0.1263
     24 C20        -2.7574  -10.0916   -8.1541 C.ar      1 <0>         0.1753
     25 C21        -3.3268  -10.6453   -7.0130 C.ar      1 <0>        -0.1550
     26 C22        -3.1388  -10.0696   -5.7792 C.ar      1 <0>        -0.0364
     27 C23        -4.0821  -11.8732   -7.4679 C.3       1 <0>        -0.0403
     28 H2         -3.6758  -12.7680   -6.9963 H         1 <0>         0.1640
     29 C24        -3.8540  -11.9119   -8.9640 C.2       1 <0>         0.5339
     30 O2         -4.2849  -12.7411   -9.7371 O.2       1 <0>        -0.4542
     31 N3         -3.0847  -10.8551   -9.2745 N.am      1 <0>        -0.6522
     32 C25        -5.5504  -11.7349   -7.1581 C.2       1 <0>         0.0652
     33 C26        -6.2934  -12.5401   -6.3650 C.ar      1 <0>        -0.1440
     34 C27        -5.9697  -13.7402   -5.5843 C.ar      1 <0>        -0.0212
     35 C28        -6.9488  -14.3436   -4.8727 C.ar      1 <0>        -0.1398
     36 C29        -8.2617  -13.8531   -4.8623 C.ar      1 <0>         0.0596
     37 C30        -8.6358  -12.7560   -5.5541 C.ar      1 <0>        -0.2084
     38 C31        -7.6872  -12.0419   -6.3370 C.ar      1 <0>         0.3328
     39 N4         -7.8013  -10.9705   -7.0837 N.pl3     1 <0>        -0.5786
     40 C32        -6.4899  -10.6640   -7.6657 C.3       1 <0>         0.0643
     41 N5         -0.2401   -2.6000   -2.2122 N.4       1 <0>        -0.6429
     42 H3         -0.9665    1.8612    0.0259 H         1 <0>         0.1680
     43 H4          1.0933    3.1789    0.0083 H         1 <0>         0.1724
     44 H5          3.2717    2.1606   -0.0175 H         1 <0>         0.1717
     45 H6          3.4952   -2.5561   -0.9413 H         1 <0>         0.1783
     46 H7          3.5129   -2.5667    0.8465 H         1 <0>         0.1864
     47 H8         -0.9210   -0.5647    0.0081 H         1 <0>         0.1598
     48 H9          1.1268   -3.9987    0.5563 H         1 <0>         0.1618
     49 H10        -0.2596   -2.8905    0.4214 H         1 <0>         0.1367
     50 H11         0.0767   -5.6752   -0.8223 H         1 <0>         0.1232
     51 H12        -1.3877   -4.6916   -1.0596 H         1 <0>         0.1008
     52 H13        -0.9585   -6.6517   -5.0839 H         1 <0>         0.1512
     53 H14        -3.3319   -9.7326   -3.2757 H         1 <0>         0.1661
     54 H15        -1.7218   -6.7554   -0.8769 H         1 <0>         0.1595
     55 H16        -1.2073   -7.4485   -6.7217 H         1 <0>         0.1407
     56 H17        -1.5427   -8.4923   -8.9153 H         1 <0>         0.1454
     57 H18        -3.5840  -10.5135   -4.9010 H         1 <0>         0.1393
     58 H19        -2.7907  -10.6468  -10.1751 H         1 <0>         0.4317
     59 H20        -4.9648  -14.1357   -5.5786 H         1 <0>         0.1630
     60 H21        -6.7128  -15.2268   -4.2976 H         1 <0>         0.1626
     61 H22        -9.0047  -14.3745   -4.2771 H         1 <0>         0.1656
     62 H23        -9.6610  -12.4189   -5.5132 H         1 <0>         0.1647
     63 H24        -6.1514   -9.6811   -7.3378 H         1 <0>         0.1724
     64 H25        -6.5466  -10.6989   -8.7537 H         1 <0>         0.1707
     65 H26        -1.1275   -2.4051   -1.7732 H         1 <0>         0.4385
     66 H27         0.3232   -1.7629   -2.2183 H         1 <0>         0.4310
     67 H28        -8.6158  -10.4629   -7.2247 H         1 <0>         0.4586
     68 H29         4.5087   -0.3528   -0.0446 H         1 <0>         0.4658
     69 H30        -0.3944   -2.9085   -3.1604 H         1 <0>         0.4536
@<TRIPOS>BOND
     1    1    9 ar
     2    1    2 ar
     3    1   42 1
     4    2    3 ar
     5    2   43 1
     6    3    4 ar
     7    3   44 1
     8    4    8 ar
     9    4    5 2
    10    5    6 1
    11    5   68 1
    12    6    7 1
    13    6   45 1
    14    6   46 1
    15    7    8 2
    16    7   10 1
    17    8    9 ar
    18    9   47 1
    19   10   11 1
    20   10   48 1
    21   10   49 1
    22   11   12 1
    23   11   13 1
    24   11   41 1
    25   13   14 1
    26   13   50 1
    27   13   51 1
    28   14   15 1
    29   15   20 ar
    30   15   16 ar
    31   16   17 ar
    32   16   52 1
    33   17   18 ar
    34   17   21 1
    35   18   19 ar
    36   18   53 1
    37   19   20 ar
    38   20   54 1
    39   21   26 ar
    40   21   22 ar
    41   22   23 ar
    42   22   55 1
    43   23   24 ar
    44   23   56 1
    45   24   31 1
    46   24   25 ar
    47   25   26 ar
    48   25   27 1
    49   26   57 1
    50   27   28 1
    51   27   29 1
    52   27   32 1
    53   29   30 2
    54   29   31 am
    55   31   58 1
    56   32   40 1
    57   32   33 2
    58   33   38 ar
    59   33   34 ar
    60   34   35 ar
    61   34   59 1
    62   35   36 ar
    63   35   60 1
    64   36   37 ar
    65   36   61 1
    66   37   38 ar
    67   37   62 1
    68   38   39 2
    69   39   40 1
    70   39   67 1
    71   40   63 1
    72   40   64 1
    73   41   65 1
    74   41   66 1
    75   41   69 1
@<TRIPOS>MOLECULE
ZINC04293695
   43    43     0     0     0
SMALL
USER_CHARGES
methyl 5-acetylamino-2,4-dihydroxy-6-(1,2,3-trihydroxypropyl)tetrahydropyran-2-carboxylate
@<TRIPOS>ATOM
      1 C1          2.9742    3.7231   -4.2808 C.3       1 <0>        -0.1740
      2 C2          2.2733    4.1994   -3.0347 C.2       1 <0>         0.5159
      3 O1          2.6046    5.2436   -2.5142 O.2       1 <0>        -0.5213
      4 N1          1.2784    3.4651   -2.4986 N.am      1 <0>        -0.7198
      5 C3          0.5971    3.9281   -1.2872 C.3       1 <0>         0.1264
      6 H1          0.5240    5.0156   -1.3024 H         1 <0>         0.1150
      7 C4          1.3895    3.4855   -0.0533 C.3       1 <0>         0.0937
      8 H2          0.9098    3.8719    0.8460 H         1 <0>         0.0588
      9 C5          1.4189    1.9549   -0.0010 C.3       1 <0>        -0.1658
     10 C6         -0.0173    1.4248    0.0099 C.3       1 <0>         0.3261
     11 O2         -0.7073    1.8984   -1.1485 O.3       1 <0>        -0.3446
     12 C7         -0.8074    3.3218   -1.2267 C.3       1 <0>         0.0538
     13 H3         -1.3283    3.6985   -0.3464 H         1 <0>         0.1048
     14 C8         -1.5855    3.7102   -2.4854 C.3       1 <0>         0.0954
     15 H4         -1.0646    3.3329   -3.3655 H         1 <0>         0.1123
     16 C9         -2.9890    3.1041   -2.4247 C.3       1 <0>         0.0854
     17 H5         -3.5099    3.4813   -1.5447 H         1 <0>         0.1066
     18 C10        -3.7672    3.4925   -3.6835 C.3       1 <0>         0.0457
     19 O3         -5.1133    3.0255   -3.5744 O.3       1 <0>        -0.5646
     20 O4         -2.8902    1.6807   -2.3460 O.3       1 <0>        -0.5264
     21 O5         -1.6843    5.1336   -2.5641 O.3       1 <0>        -0.5367
     22 C11        -0.7231    1.9110    1.2494 C.2       1 <0>         0.4108
     23 O6         -1.7647    2.5158    1.1535 O.2       1 <0>        -0.4812
     24 O7         -0.1947    1.6722    2.4600 O.3       1 <0>        -0.3449
     25 C12        -0.9289    2.1698    3.6096 C.3       1 <0>         0.0300
     26 O8          0.0021   -0.0041    0.0020 O.3       1 <0>        -0.5029
     27 O9          2.7250    3.9867   -0.1378 O.3       1 <0>        -0.5297
     28 H6          2.2510    3.6284   -5.0908 H         1 <0>         0.0854
     29 H7          3.7433    4.4423   -4.5626 H         1 <0>         0.0919
     30 H8          3.4354    2.7540   -4.0904 H         1 <0>         0.0863
     31 H9          1.0135    2.6300   -2.9149 H         1 <0>         0.4002
     32 H10         1.9335    1.6312    0.9037 H         1 <0>         0.1001
     33 H11         1.9424    1.5705   -0.8763 H         1 <0>         0.1065
     34 H12        -3.7664    4.5772   -3.7909 H         1 <0>         0.0625
     35 H13        -3.2955    3.0407   -4.5561 H         1 <0>         0.0484
     36 H14        -5.6661    3.2369   -4.3391 H         1 <0>         0.3810
     37 H15        -2.4368    1.2757   -3.0980 H         1 <0>         0.3711
     38 H16        -2.1377    5.5385   -1.8121 H         1 <0>         0.3823
     39 H17        -0.3938    1.9096    4.5229 H         1 <0>         0.1077
     40 H18        -1.0226    3.2535    3.5395 H         1 <0>         0.0655
     41 H19        -1.9215    1.7198    3.6293 H         1 <0>         0.0674
     42 H20        -0.8759   -0.4094    0.0082 H         1 <0>         0.3972
     43 H21         3.2864    3.7381    0.6093 H         1 <0>         0.3779
@<TRIPOS>BOND
     1    1    2 1
     2    1   28 1
     3    1   29 1
     4    1   30 1
     5    2    3 2
     6    2    4 am
     7    4    5 1
     8    4   31 1
     9    5    6 1
    10    5   12 1
    11    5    7 1
    12    7    8 1
    13    7    9 1
    14    7   27 1
    15    9   10 1
    16    9   32 1
    17    9   33 1
    18   10   11 1
    19   10   22 1
    20   10   26 1
    21   11   12 1
    22   12   13 1
    23   12   14 1
    24   14   15 1
    25   14   16 1
    26   14   21 1
    27   16   17 1
    28   16   18 1
    29   16   20 1
    30   18   19 1
    31   18   34 1
    32   18   35 1
    33   19   36 1
    34   20   37 1
    35   21   38 1
    36   22   23 2
    37   22   24 1
    38   24   25 1
    39   25   39 1
    40   25   40 1
    41   25   41 1
    42   26   42 1
    43   27   43 1
@<TRIPOS>MOLECULE
ZINC05224791
   45    46     0     0     0
SMALL
USER_CHARGES
2-[3,4-dihydroxy-2,5-bis(hydroxymethyl)tetrahydrofuran-2-yl]oxy-6-(hydroxymethyl)tetrahydropyran-3,4,5-triol
@<TRIPOS>ATOM
      1 C1         -1.5319    2.1911   -0.0332 C.3       1 <0>         0.0902
      2 C2         -0.1303    2.3869   -0.6148 C.3       1 <0>         0.1095
      3 H1         -0.0460    1.8383   -1.5529 H         1 <0>         0.0909
      4 C3          0.9118    1.8644    0.3776 C.3       1 <0>         0.0877
      5 H2          0.8018    2.3835    1.3297 H         1 <0>         0.0725
      6 C4          2.3136    2.1185   -0.1850 C.3       1 <0>         0.0856
      7 H3          3.0613    1.7983    0.5406 H         1 <0>         0.0617
      8 C5          2.4761    3.6159   -0.4641 C.3       1 <0>         0.0516
      9 H4          2.3973    4.1712    0.4705 H         1 <0>         0.0819
     10 C6          1.3735    4.0707   -1.4240 C.3       1 <0>         0.2027
     11 H5          1.4585    5.1442   -1.5926 H         1 <0>         0.1348
     12 O1          0.0965    3.7774   -0.8537 O.3       1 <0>        -0.3443
     13 O2          1.5101    3.3806   -2.6679 O.3       1 <0>        -0.3204
     14 C7          0.6692    3.8847   -3.7075 C.3       1 <0>         0.2741
     15 C8          0.9660    3.1451   -5.0264 C.3       1 <0>         0.1045
     16 H6          1.2990    3.8470   -5.7909 H         1 <0>         0.0871
     17 C9         -0.3920    2.5162   -5.4227 C.3       1 <0>         0.0414
     18 H7         -0.4445    1.4739   -5.1082 H         1 <0>         0.0914
     19 C10        -1.3974    3.3858   -4.6256 C.3       1 <0>         0.0503
     20 H8         -1.6012    4.3177   -5.1529 H         1 <0>         0.0829
     21 O3         -0.7098    3.6447   -3.3804 O.3       1 <0>        -0.3122
     22 C11        -2.6953    2.6155   -4.3748 C.3       1 <0>         0.0921
     23 O4         -3.6452    3.4758   -3.7427 O.3       1 <0>        -0.5523
     24 O5         -0.6176    2.6341   -6.8288 O.3       1 <0>        -0.5536
     25 O6          1.9494    2.1290   -4.8197 O.3       1 <0>        -0.5219
     26 C12         0.9077    5.3853   -3.8876 C.3       1 <0>         0.0374
     27 O7          0.4397    6.0840   -2.7322 O.3       1 <0>        -0.5410
     28 O8          3.7541    3.8552   -1.0570 O.3       1 <0>        -0.5495
     29 O9          2.4814    1.3849   -1.3998 O.3       1 <0>        -0.5246
     30 O10         0.7231    0.4616    0.5739 O.3       1 <0>        -0.5446
     31 O11        -2.5082    2.5705   -1.0052 O.3       1 <0>        -0.5434
     32 H9         -1.6719    1.1433    0.2326 H         1 <0>         0.0614
     33 H10        -1.6457    2.8099    0.8569 H         1 <0>         0.0428
     34 H11        -3.0988    2.2644   -5.3246 H         1 <0>         0.0501
     35 H12        -2.4920    1.7616   -3.7285 H         1 <0>         0.0605
     36 H13        -4.4940    3.0529   -3.5533 H         1 <0>         0.3771
     37 H14        -1.4559    2.2546   -7.1258 H         1 <0>         0.3869
     38 H15         2.1745    1.6314   -5.6177 H         1 <0>         0.3808
     39 H16         1.9739    5.5708   -4.0172 H         1 <0>         0.0654
     40 H17         0.3683    5.7359   -4.7675 H         1 <0>         0.0606
     41 H18         0.5592    7.0425   -2.7770 H         1 <0>         0.3768
     42 H19         3.9251    4.7848   -1.2610 H         1 <0>         0.3830
     43 H20         3.3487    1.4995   -1.8119 H         1 <0>         0.3825
     44 H21         1.3535    0.0622    1.1888 H         1 <0>         0.3805
     45 H22        -3.4219    2.4721   -0.7041 H         1 <0>         0.3690
@<TRIPOS>BOND
     1    1    2 1
     2    1   31 1
     3    1   32 1
     4    1   33 1
     5    2    3 1
     6    2   12 1
     7    2    4 1
     8    4    5 1
     9    4    6 1
    10    4   30 1
    11    6    7 1
    12    6    8 1
    13    6   29 1
    14    8    9 1
    15    8   10 1
    16    8   28 1
    17   10   11 1
    18   10   12 1
    19   10   13 1
    20   13   14 1
    21   14   21 1
    22   14   15 1
    23   14   26 1
    24   15   16 1
    25   15   17 1
    26   15   25 1
    27   17   18 1
    28   17   19 1
    29   17   24 1
    30   19   20 1
    31   19   21 1
    32   19   22 1
    33   22   23 1
    34   22   34 1
    35   22   35 1
    36   23   36 1
    37   24   37 1
    38   25   38 1
    39   26   27 1
    40   26   39 1
    41   26   40 1
    42   27   41 1
    43   28   42 1
    44   29   43 1
    45   30   44 1
    46   31   45 1
@<TRIPOS>MOLECULE
ZINC15205943
   45    46     0     0     0
SMALL
USER_CHARGES
(2R,3S,4R,5R,6S)-2-(hydroxymethyl)-6-[[(2R,3S,4S,5S)-3,4,5-trihydroxy-5-(hydroxymethyl)tetrahydrofuran-2-yl]methoxy]tetrahydropyran-3,4,5-triol
@<TRIPOS>ATOM
      1 C1         -5.2735   -2.7558    0.2245 C.3       1 <0>         0.0884
      2 C2         -5.5120   -1.3502   -0.3308 C.3       1 <0>         0.1018
      3 H1         -4.6266   -0.7375   -0.1616 H         1 <0>         0.1005
      4 C3         -6.7131   -0.7184    0.3777 C.3       1 <0>         0.0927
      5 H2         -7.5900   -1.3516    0.2429 H         1 <0>         0.0757
      6 C4         -6.9823    0.6639   -0.2250 C.3       1 <0>         0.0854
      7 H3         -7.8703    1.0961    0.2363 H         1 <0>         0.0663
      8 C5         -7.2085    0.5161   -1.7327 C.3       1 <0>         0.0572
      9 H4         -8.0956   -0.0916   -1.9111 H         1 <0>         0.0855
     10 C6         -5.9883   -0.1634   -2.3597 C.3       1 <0>         0.2153
     11 H5         -6.1615   -0.3097   -3.4259 H         1 <0>         0.1005
     12 O1         -5.7755   -1.4301   -1.7333 O.3       1 <0>        -0.3734
     13 O2         -4.8356    0.6603   -2.1727 O.3       1 <0>        -0.3535
     14 C7         -3.6893    0.2321   -2.9108 C.3       1 <0>         0.0703
     15 C8         -2.5218    1.1819   -2.6360 C.3       1 <0>         0.0932
     16 H6         -2.8058    2.2083   -2.8681 H         1 <0>         0.0933
     17 C9         -1.2835    0.7645   -3.4600 C.3       1 <0>         0.0490
     18 H7         -1.3336   -0.2941   -3.7150 H         1 <0>         0.0867
     19 C10        -0.0930    1.0409   -2.5148 C.3       1 <0>         0.0639
     20 H8          0.5758    1.7835   -2.9500 H         1 <0>         0.0960
     21 C11        -0.7527    1.5927   -1.2315 C.3       1 <0>         0.2834
     22 O3         -2.1011    1.0760   -1.2584 O.3       1 <0>        -0.3379
     23 C12        -0.0127    1.0858    0.0080 C.3       1 <0>         0.0741
     24 O4         -0.6816    1.5467    1.1837 O.3       1 <0>        -0.5664
     25 O5         -0.7670    3.0214   -1.2516 O.3       1 <0>        -0.5567
     26 O6          0.6146   -0.1684   -2.2338 O.3       1 <0>        -0.5467
     27 O7         -1.1785    1.5589   -4.6432 O.3       1 <0>        -0.5475
     28 O8         -7.3889    1.8075   -2.3174 O.3       1 <0>        -0.5480
     29 O9         -5.8594    1.5161    0.0087 O.3       1 <0>        -0.5238
     30 O10        -6.4290   -0.5845    1.7717 O.3       1 <0>        -0.5420
     31 O11        -4.0847   -3.3003   -0.3520 O.3       1 <0>        -0.5650
     32 H9         -5.1615   -2.7044    1.3076 H         1 <0>         0.0717
     33 H10        -6.1223   -3.3932   -0.0231 H         1 <0>         0.0490
     34 H11        -3.9199    0.2386   -3.9761 H         1 <0>         0.0640
     35 H12        -3.4162   -0.7777   -2.6043 H         1 <0>         0.0678
     36 H13         0.0021   -0.0041    0.0020 H         1 <0>         0.0742
     37 H14         1.0099    1.4631    0.0003 H         1 <0>         0.0657
     38 H15        -0.2663    1.2624    2.0094 H         1 <0>         0.3852
     39 H16        -1.1923    3.4214   -0.4808 H         1 <0>         0.3990
     40 H17         1.0485   -0.5584   -3.0050 H         1 <0>         0.3887
     41 H18        -0.4178    1.3389   -5.1983 H         1 <0>         0.3844
     42 H19        -7.5326    1.7898   -3.2735 H         1 <0>         0.3859
     43 H20        -5.9600    2.4074   -0.3527 H         1 <0>         0.3830
     44 H21        -7.1466   -0.1857    2.2828 H         1 <0>         0.3831
     45 H22        -3.8713   -4.1920   -0.0446 H         1 <0>         0.3798
@<TRIPOS>BOND
     1    1    2 1
     2    1   31 1
     3    1   32 1
     4    1   33 1
     5    2    3 1
     6    2   12 1
     7    2    4 1
     8    4    5 1
     9    4    6 1
    10    4   30 1
    11    6    7 1
    12    6    8 1
    13    6   29 1
    14    8    9 1
    15    8   10 1
    16    8   28 1
    17   10   11 1
    18   10   12 1
    19   10   13 1
    20   13   14 1
    21   14   15 1
    22   14   34 1
    23   14   35 1
    24   15   16 1
    25   15   22 1
    26   15   17 1
    27   17   18 1
    28   17   19 1
    29   17   27 1
    30   19   20 1
    31   19   21 1
    32   19   26 1
    33   21   22 1
    34   21   23 1
    35   21   25 1
    36   23   24 1
    37   23   36 1
    38   23   37 1
    39   24   38 1
    40   25   39 1
    41   26   40 1
    42   27   41 1
    43   28   42 1
    44   29   43 1
    45   30   44 1
    46   31   45 1
@<TRIPOS>MOLECULE
ZINC37246278
   45    46     0     0     0
SMALL
USER_CHARGES

@<TRIPOS>ATOM
      1 C1         -0.0187    1.5258    0.0104 C.3       1 <0>         0.0892
      2 C2          0.0021   -0.0041    0.0020 C.3       1 <0>         0.1126
      3 H1          0.6044   -0.3640    0.8361 H         1 <0>         0.0776
      4 C3         -1.4274   -0.5348    0.1380 C.3       1 <0>         0.0910
      5 H2         -1.8434   -0.2200    1.0951 H         1 <0>         0.0725
      6 C4         -1.4045   -2.0648    0.0683 C.3       1 <0>         0.0784
      7 H3         -0.8327   -2.4596    0.9081 H         1 <0>         0.0775
      8 C5         -0.7473   -2.4952   -1.2466 C.3       1 <0>         0.0660
      9 H4         -0.6768   -3.5825   -1.2798 H         1 <0>         0.0674
     10 C6          0.6560   -1.8888   -1.3292 C.3       1 <0>         0.2275
     11 H5          1.2669   -2.2736   -0.5126 H         1 <0>         0.0552
     12 O1          0.5657   -0.4663   -1.2271 O.3       1 <0>        -0.3647
     13 O2          1.2543   -2.2402   -2.5784 O.3       1 <0>        -0.3595
     14 C7          2.6436   -1.9183   -2.6684 C.3       1 <0>         0.0780
     15 C8          3.1761   -2.3364   -4.0405 C.3       1 <0>         0.0933
     16 H6          2.9611   -3.3880   -4.2302 H         1 <0>         0.0934
     17 C9          4.6986   -2.0638   -4.1413 C.3       1 <0>         0.0418
     18 H7          5.2711   -2.9034   -3.7470 H         1 <0>         0.0880
     19 C10         4.9028   -1.9250   -5.6696 C.3       1 <0>         0.0615
     20 H8          5.2619   -2.8629   -6.0932 H         1 <0>         0.0870
     21 C11         3.4984   -1.5920   -6.2095 C.3       1 <0>         0.2902
     22 O3          2.6124   -1.5067   -5.0790 O.3       1 <0>        -0.3514
     23 C12         3.0271   -2.7010   -7.1525 C.3       1 <0>         0.0413
     24 O4          1.7248   -2.3836   -7.6478 O.3       1 <0>        -0.5586
     25 O5          3.5276   -0.3421   -6.9014 O.3       1 <0>        -0.5147
     26 O6          5.8167   -0.8650   -5.9579 O.3       1 <0>        -0.5181
     27 O7          5.0454   -0.8521   -3.4677 O.3       1 <0>        -0.5297
     28 O8         -1.5337   -2.0339   -2.3470 O.3       1 <0>        -0.5225
     29 O9         -2.7417   -2.5659    0.1229 O.3       1 <0>        -0.5477
     30 O10        -2.2314   -0.0191   -0.9248 O.3       1 <0>        -0.5273
     31 O11         1.3220    2.0204    0.0003 O.3       1 <0>        -0.5684
     32 H9         -0.5459    1.8868   -0.8726 H         1 <0>         0.0696
     33 H10        -0.5289    1.8773    0.9072 H         1 <0>         0.0625
     34 H11         2.7769   -0.8443   -2.5388 H         1 <0>         0.0861
     35 H12         3.1907   -2.4490   -1.8892 H         1 <0>         0.0652
     36 H13         3.7223   -2.7876   -7.9875 H         1 <0>         0.0664
     37 H14         2.9896   -3.6464   -6.6113 H         1 <0>         0.0570
     38 H15         1.3624   -3.0447   -8.2533 H         1 <0>         0.3861
     39 H16         2.6730   -0.0745   -7.2664 H         1 <0>         0.3884
     40 H17         6.7013   -0.9976   -5.5906 H         1 <0>         0.3753
     41 H18         5.9879   -0.6385   -3.5028 H         1 <0>         0.3816
     42 H19        -1.1756   -2.2714   -3.2133 H         1 <0>         0.3825
     43 H20        -2.8023   -3.5302    0.0832 H         1 <0>         0.3854
     44 H21        -3.1517   -0.3151   -0.9011 H         1 <0>         0.3837
     45 H22         1.3852    2.9853    0.0049 H         1 <0>         0.3834
@<TRIPOS>BOND
     1    1    2 1
     2    1   31 1
     3    1   32 1
     4    1   33 1
     5    2    3 1
     6    2   12 1
     7    2    4 1
     8    4    5 1
     9    4    6 1
    10    4   30 1
    11    6    7 1
    12    6    8 1
    13    6   29 1
    14    8    9 1
    15    8   10 1
    16    8   28 1
    17   10   11 1
    18   10   12 1
    19   10   13 1
    20   13   14 1
    21   14   15 1
    22   14   34 1
    23   14   35 1
    24   15   16 1
    25   15   22 1
    26   15   17 1
    27   17   18 1
    28   17   19 1
    29   17   27 1
    30   19   20 1
    31   19   21 1
    32   19   26 1
    33   21   22 1
    34   21   23 1
    35   21   25 1
    36   23   24 1
    37   23   36 1
    38   23   37 1
    39   24   38 1
    40   25   39 1
    41   26   40 1
    42   27   41 1
    43   28   42 1
    44   29   43 1
    45   30   44 1
    46   31   45 1
@<TRIPOS>MOLECULE
ZINC44608660
   45    46     0     0     0
SMALL
USER_CHARGES

@<TRIPOS>ATOM
      1 C1         -0.0456    1.8659    0.6895 C.3       1 <0>         0.0965
      2 C2         -0.0798    0.3533    0.4619 C.3       1 <0>         0.1154
      3 H1          0.4354    0.1140   -0.4684 H         1 <0>         0.0797
      4 C3         -1.5341   -0.1173    0.3757 C.3       1 <0>         0.0858
      5 H2         -2.0187    0.3520   -0.4805 H         1 <0>         0.0804
      6 C4         -1.5608   -1.6396    0.2082 C.3       1 <0>         0.0872
      7 H3         -1.0777   -1.9117   -0.7302 H         1 <0>         0.0734
      8 C5         -0.8095   -2.2842    1.3771 C.3       1 <0>         0.0575
      9 H4         -1.3215   -2.0528    2.3111 H         1 <0>         0.0817
     10 C6          0.6167   -1.7299    1.4246 C.3       1 <0>         0.2271
     11 H5          1.1411   -1.9966    0.5070 H         1 <0>         0.0994
     12 O1          0.5698   -0.3071    1.5500 O.3       1 <0>        -0.3469
     13 O2          1.3066   -2.2848    2.5462 O.3       1 <0>        -0.3693
     14 C7          2.6939   -1.9466    2.6008 C.3       1 <0>         0.2730
     15 C8          3.2966   -2.3659    3.9600 C.3       1 <0>         0.1013
     16 H6          2.7096   -3.1683    4.4068 H         1 <0>         0.0987
     17 C9          3.2078   -1.0860    4.8209 C.3       1 <0>         0.0459
     18 H7          4.2026   -0.7606    5.1253 H         1 <0>         0.0841
     19 C10         2.5619   -0.0448    3.8801 C.3       1 <0>         0.0538
     20 H8          1.4835   -0.0112    4.0347 H         1 <0>         0.0931
     21 O3          2.8645   -0.5134    2.5479 O.3       1 <0>        -0.3120
     22 C11         3.1758    1.3370    4.1134 C.3       1 <0>         0.0876
     23 O4          2.4866    2.3047    3.3193 O.3       1 <0>        -0.5425
     24 O5          2.3832   -1.3094    5.9664 O.3       1 <0>        -0.5500
     25 O6          4.6574   -2.7719    3.8004 O.3       1 <0>        -0.5456
     26 C12         3.4499   -2.6157    1.4511 C.3       1 <0>         0.0766
     27 O7          2.9937   -2.0819    0.2066 O.3       1 <0>        -0.5581
     28 O8         -0.7668   -3.7008    1.1943 O.3       1 <0>        -0.5613
     29 O9         -2.9151   -2.0957    0.1984 O.3       1 <0>        -0.5576
     30 O10        -2.2249    0.2448    1.5731 O.3       1 <0>        -0.5453
     31 O11         1.3080    2.3225    0.6543 O.3       1 <0>        -0.5463
     32 H9         -0.6176    2.3642   -0.0932 H         1 <0>         0.0529
     33 H10        -0.4818    2.0970    1.6613 H         1 <0>         0.0623
     34 H11         3.0861    1.6013    5.1671 H         1 <0>         0.0519
     35 H12         4.2286    1.3192    3.8317 H         1 <0>         0.0515
     36 H13         2.8235    3.2058    3.4172 H         1 <0>         0.3729
     37 H14         2.2927   -0.5379    6.5424 H         1 <0>         0.3863
     38 H15         5.0853   -3.0457    4.6232 H         1 <0>         0.3923
     39 H16         4.5176   -2.4250    1.5587 H         1 <0>         0.0789
     40 H17         3.2686   -3.6903    1.4738 H         1 <0>         0.0665
     41 H18         3.4307   -2.4614   -0.5680 H         1 <0>         0.3790
     42 H19        -0.3046   -4.1746    1.8993 H         1 <0>         0.3900
     43 H20        -3.0070   -3.0528    0.0953 H         1 <0>         0.3931
     44 H21        -3.1539   -0.0230    1.5875 H         1 <0>         0.3851
     45 H22         1.4057    3.2747    0.7917 H         1 <0>         0.3737
@<TRIPOS>BOND
     1    1    2 1
     2    1   31 1
     3    1   32 1
     4    1   33 1
     5    2    3 1
     6    2   12 1
     7    2    4 1
     8    4    5 1
     9    4    6 1
    10    4   30 1
    11    6    7 1
    12    6    8 1
    13    6   29 1
    14    8    9 1
    15    8   10 1
    16    8   28 1
    17   10   11 1
    18   10   12 1
    19   10   13 1
    20   13   14 1
    21   14   21 1
    22   14   15 1
    23   14   26 1
    24   15   16 1
    25   15   17 1
    26   15   25 1
    27   17   18 1
    28   17   19 1
    29   17   24 1
    30   19   20 1
    31   19   21 1
    32   19   22 1
    33   22   23 1
    34   22   34 1
    35   22   35 1
    36   23   36 1
    37   24   37 1
    38   25   38 1
    39   26   27 1
    40   26   39 1
    41   26   40 1
    42   27   41 1
    43   28   42 1
    44   29   43 1
    45   30   44 1
    46   31   45 1
@<TRIPOS>MOLECULE
ZINC04293709
   56    57     0     0     0
SMALL
USER_CHARGES
allyl [2,4-dihydroxy-6-(hydroxymethyl)-5-[3,4,5-trihydroxy-6-(hydroxymethyl)tetrahydropyran-2-yl]oxy-tetrahydropyran-3-yl]aminoformate
@<TRIPOS>ATOM
      1 C1         -2.1105   14.4324    2.3201 C.2       1 <0>        -0.1619
      2 C2         -2.0552   13.8054    1.1712 C.2       1 <0>        -0.1645
      3 C3         -1.3586   12.4727    1.0729 C.3       1 <0>         0.1156
      4 O1         -2.1780   11.5539    0.3031 O.3       1 <0>        -0.3647
      5 C4         -1.6955   10.3102    0.1209 C.2       1 <0>         0.6514
      6 O2         -0.6190   10.0011    0.5922 O.2       1 <0>        -0.5657
      7 N1         -2.4064    9.4082   -0.5843 N.am      1 <0>        -0.6989
      8 C5         -1.8813    8.0549   -0.7826 C.3       1 <0>         0.1244
      9 H1         -1.3287    7.7441    0.1040 H         1 <0>         0.1268
     10 C6         -3.0422    7.0862   -1.0280 C.3       1 <0>         0.0839
     11 H2         -3.6245    7.4245   -1.8851 H         1 <0>         0.0880
     12 C7         -2.4773    5.6908   -1.3108 C.3       1 <0>         0.0783
     13 H3         -3.2943    5.0067   -1.5400 H         1 <0>         0.1017
     14 C8         -1.5226    5.7678   -2.5051 C.3       1 <0>         0.0982
     15 H4         -2.0725    6.0876   -3.3901 H         1 <0>         0.0920
     16 O3         -0.4843    6.7085   -2.2234 O.3       1 <0>        -0.3658
     17 C9         -0.9496    8.0406   -1.9973 C.3       1 <0>         0.2473
     18 H5         -0.0989    8.6961   -1.8107 H         1 <0>         0.1095
     19 O4         -1.6608    8.4989   -3.1489 O.3       1 <0>        -0.5764
     20 C10        -0.9078    4.3895   -2.7565 C.3       1 <0>         0.0900
     21 O5         -0.1132    4.4316   -3.9435 O.3       1 <0>        -0.5690
     22 O6         -1.7686    5.2207   -0.1624 O.3       1 <0>        -0.3375
     23 C11        -2.5314    4.3493    0.6748 C.3       1 <0>         0.2226
     24 H6         -3.5040    4.7982    0.8763 H         1 <0>         0.0785
     25 C12        -1.7876    4.1286    1.9945 C.3       1 <0>         0.0620
     26 H7         -1.6870    5.0787    2.5192 H         1 <0>         0.0763
     27 C13        -2.5807    3.1462    2.8620 C.3       1 <0>         0.0832
     28 H8         -3.5504    3.5790    3.1079 H         1 <0>         0.0807
     29 C14        -2.7838    1.8432    2.0827 C.3       1 <0>         0.0909
     30 H9         -1.8157    1.3847    1.8811 H         1 <0>         0.0857
     31 C15        -3.4891    2.1522    0.7596 C.3       1 <0>         0.1161
     32 H10        -4.4743    2.5721    0.9622 H         1 <0>         0.0765
     33 O7         -2.7130    3.0941    0.0162 O.3       1 <0>        -0.3775
     34 C16        -3.6407    0.8634   -0.0509 C.3       1 <0>         0.0902
     35 O8         -4.4007    1.1296   -1.2314 O.3       1 <0>        -0.5682
     36 O9         -3.5859    0.9460    2.8533 O.3       1 <0>        -0.5577
     37 O10        -1.8571    2.8763    4.0643 O.3       1 <0>        -0.5483
     38 O11        -0.4909    3.5907    1.7277 O.3       1 <0>        -0.5400
     39 O12        -3.8792    7.0376    0.1293 O.3       1 <0>        -0.5540
     40 H11        -1.6568   13.9942    3.1968 H         1 <0>         0.1016
     41 H12        -2.6097   15.3875    2.3906 H         1 <0>         0.1112
     42 H13        -2.5088   14.2436    0.2945 H         1 <0>         0.1218
     43 H14        -1.2027   12.0695    2.0735 H         1 <0>         0.0779
     44 H15        -0.3955   12.6017    0.5791 H         1 <0>         0.0826
     45 H16        -3.2657    9.6549   -0.9606 H         1 <0>         0.4099
     46 H17        -1.1307    8.5160   -3.9575 H         1 <0>         0.3921
     47 H18        -0.2809    4.1112   -1.9094 H         1 <0>         0.0657
     48 H19        -1.7028    3.6536   -2.8774 H         1 <0>         0.0668
     49 H20         0.3083    3.5899   -4.1648 H         1 <0>         0.3839
     50 H21        -2.6547    0.4915   -0.3298 H         1 <0>         0.0567
     51 H22        -4.1548    0.1140    0.5509 H         1 <0>         0.0758
     52 H23        -4.5366    0.3554   -1.7947 H         1 <0>         0.3837
     53 H24        -3.1999    0.7081    3.7074 H         1 <0>         0.3930
     54 H25        -1.6924    3.6587    4.6083 H         1 <0>         0.3864
     55 H26         0.0657    4.1599    1.1788 H         1 <0>         0.3875
     56 H27        -4.2716    7.8888    0.3670 H         1 <0>         0.3837
@<TRIPOS>BOND
     1    1    2 2
     2    1   40 1
     3    1   41 1
     4    2    3 1
     5    2   42 1
     6    3    4 1
     7    3   43 1
     8    3   44 1
     9    4    5 1
    10    5    6 2
    11    5    7 am
    12    7    8 1
    13    7   45 1
    14    8    9 1
    15    8   17 1
    16    8   10 1
    17   10   11 1
    18   10   12 1
    19   10   39 1
    20   12   13 1
    21   12   14 1
    22   12   22 1
    23   14   15 1
    24   14   16 1
    25   14   20 1
    26   16   17 1
    27   17   18 1
    28   17   19 1
    29   19   46 1
    30   20   21 1
    31   20   47 1
    32   20   48 1
    33   21   49 1
    34   22   23 1
    35   23   24 1
    36   23   33 1
    37   23   25 1
    38   25   26 1
    39   25   27 1
    40   25   38 1
    41   27   28 1
    42   27   29 1
    43   27   37 1
    44   29   30 1
    45   29   31 1
    46   29   36 1
    47   31   32 1
    48   31   33 1
    49   31   34 1
    50   34   35 1
    51   34   50 1
    52   34   51 1
    53   35   52 1
    54   36   53 1
    55   37   54 1
    56   38   55 1
    57   39   56 1
@<TRIPOS>MOLECULE
ZINC02556809
   57    60     0     0     0
SMALL
USER_CHARGES
6-[2-[9-[2-(4,6-diamino-1,3,5-triazin-2-yl)ethyl]-2,4,8,10-tetraoxaspiro[5.5]undec-3-yl]ethyl]-1,3,5-triazine-2,4-diamine
@<TRIPOS>ATOM
      1 C1          0.0021   -0.0041    0.0020 C.3       1 <0>         0.0725
      2 C2         -0.0187    1.5264    0.0104 C.3       1 <0>        -0.2029
      3 C3          1.4201    2.0490   -0.0005 C.3       1 <0>         0.0791
      4 O1          2.1375    1.4576    1.0877 O.3       1 <0>        -0.3796
      5 C4          2.1526    0.0282    1.0583 C.3       1 <0>         0.2476
      6 O2          0.8107   -0.4640    1.0897 O.3       1 <0>        -0.3853
      7 C5          2.9176   -0.4987    2.2739 C.3       1 <0>        -0.0928
      8 C6          4.3847   -0.0756    2.1760 C.3       1 <0>        -0.0466
      9 C7          5.1382   -0.5947    3.3734 C.ar      1 <0>         0.4359
     10 N1          5.2321    0.1451    4.4644 N.ar      1 <0>        -0.6307
     11 C8          5.8923   -0.3122    5.5260 C.ar      1 <0>         0.6314
     12 N2          6.4663   -1.5095    5.4839 N.ar      1 <0>        -0.6589
     13 C9          6.3743   -2.2481    4.3834 C.ar      1 <0>         0.6311
     14 N3          5.7079   -1.7862    3.3277 N.ar      1 <0>        -0.6357
     15 N4          6.9693   -3.4923    4.3346 N.pl3     1 <0>        -0.8064
     16 N5          5.9850    0.4588    6.6667 N.pl3     1 <0>        -0.8055
     17 C10        -0.7361    2.0236    1.2679 C.3       1 <0>         0.0791
     18 O3         -0.8648    3.4474    1.1971 O.3       1 <0>        -0.3795
     19 C11        -1.5671    3.9051    0.0390 C.3       1 <0>         0.2475
     20 O4         -0.8880    3.4604   -1.1379 O.3       1 <0>        -0.3853
     21 C12        -0.7604    2.0376   -1.2271 C.3       1 <0>         0.0725
     22 C13        -1.6235    5.4341    0.0480 C.3       1 <0>        -0.0928
     23 C14        -2.4570    5.9066    1.2408 C.3       1 <0>        -0.0466
     24 C15        -2.5126    7.4126    1.2497 C.ar      1 <0>         0.4359
     25 N6         -1.5956    8.1019    1.9057 N.ar      1 <0>        -0.6306
     26 C16        -1.6382    9.4324    1.9114 C.ar      1 <0>         0.6314
     27 N7         -2.6104   10.0668    1.2654 N.ar      1 <0>        -0.6589
     28 C17        -3.5336    9.3702    0.6116 C.ar      1 <0>         0.6311
     29 N8         -3.4812    8.0401    0.6060 N.ar      1 <0>        -0.6358
     30 N9         -4.5457   10.0245   -0.0605 N.pl3     1 <0>        -0.8064
     31 N10        -0.6770   10.1515    2.5920 N.pl3     1 <0>        -0.8055
     32 H1         -1.0134   -0.3834    0.1164 H         1 <0>         0.1035
     33 H2          0.4198   -0.3581   -0.9404 H         1 <0>         0.0627
     34 H3          1.8988    1.7802   -0.9421 H         1 <0>         0.0563
     35 H4          1.4154    3.1332    0.1118 H         1 <0>         0.1115
     36 H5          2.6427   -0.3111    0.1457 H         1 <0>         0.0610
     37 H6          2.4809   -0.0878    3.1842 H         1 <0>         0.0861
     38 H7          2.8542   -1.5866    2.2996 H         1 <0>         0.0905
     39 H8          4.8213   -0.4866    1.2658 H         1 <0>         0.0957
     40 H9          4.4481    1.0122    2.1504 H         1 <0>         0.1065
     41 H10         6.9020   -4.0308    3.5306 H         1 <0>         0.4187
     42 H11         7.4548   -3.8282    5.1042 H         1 <0>         0.4168
     43 H12         6.4695    0.1265    7.4386 H         1 <0>         0.4167
     44 H13         5.5656    1.3329    6.6967 H         1 <0>         0.4195
     45 H14        -1.7256    1.5703    1.3268 H         1 <0>         0.0563
     46 H15        -0.1560    1.7531    2.1501 H         1 <0>         0.1115
     47 H16        -2.5807    3.5043    0.0468 H         1 <0>         0.0610
     48 H17        -0.1975    1.7772   -2.1234 H         1 <0>         0.1035
     49 H18        -1.7501    1.5831   -1.2729 H         1 <0>         0.0627
     50 H19        -0.6130    5.8344    0.1295 H         1 <0>         0.0861
     51 H20        -2.0804    5.7863   -0.8768 H         1 <0>         0.0905
     52 H21        -3.4676    5.5063    1.1593 H         1 <0>         0.0956
     53 H22        -2.0002    5.5544    2.1656 H         1 <0>         0.1065
     54 H23        -5.2195    9.5152   -0.5374 H         1 <0>         0.4187
     55 H24        -4.5832   10.9938   -0.0561 H         1 <0>         0.4168
     56 H25        -0.7109   11.1209    2.5990 H         1 <0>         0.4167
     57 H26         0.0325    9.6876    3.0634 H         1 <0>         0.4194
@<TRIPOS>BOND
     1    1    6 1
     2    1    2 1
     3    1   32 1
     4    1   33 1
     5    2   21 1
     6    2    3 1
     7    2   17 1
     8    3    4 1
     9    3   34 1
    10    3   35 1
    11    4    5 1
    12    5    6 1
    13    5    7 1
    14    5   36 1
    15    7    8 1
    16    7   37 1
    17    7   38 1
    18    8    9 1
    19    8   39 1
    20    8   40 1
    21    9   14 ar
    22    9   10 ar
    23   10   11 ar
    24   11   12 ar
    25   11   16 1
    26   12   13 ar
    27   13   14 ar
    28   13   15 1
    29   15   41 1
    30   15   42 1
    31   16   43 1
    32   16   44 1
    33   17   18 1
    34   17   45 1
    35   17   46 1
    36   18   19 1
    37   19   20 1
    38   19   22 1
    39   19   47 1
    40   20   21 1
    41   21   48 1
    42   21   49 1
    43   22   23 1
    44   22   50 1
    45   22   51 1
    46   23   24 1
    47   23   52 1
    48   23   53 1
    49   24   29 ar
    50   24   25 ar
    51   25   26 ar
    52   26   27 ar
    53   26   31 1
    54   27   28 ar
    55   28   29 ar
    56   28   30 1
    57   30   54 1
    58   30   55 1
    59   31   56 1
    60   31   57 1
@<TRIPOS>MOLECULE
ZINC15205618
   57    59     0     0     0
SMALL
USER_CHARGES
(2R,3R,4R,5S,6S)-2-[(2R,3S,4S,5R,6R)-4,5-dihydroxy-2-(hydroxymethyl)-6-(4-nitrophenoxy)tetrahydropyran-3-yl]oxy-6-(hydroxymethyl)tetrahydropyran-3,4,5-triol
@<TRIPOS>ATOM
      1 C1         -4.9668    5.1487    6.2136 C.ar      1 <0>        -0.0176
      2 C2         -4.7471    4.7065    4.9234 C.ar      1 <0>        -0.1461
      3 C3         -3.7982    5.3333    4.1287 C.ar      1 <0>         0.1839
      4 C4         -3.0686    6.3996    4.6340 C.ar      1 <0>        -0.1933
      5 C5         -3.2958    6.8414    5.9230 C.ar      1 <0>        -0.0124
      6 C6         -4.2420    6.2150    6.7130 C.ar      1 <0>        -0.0830
      7 N1         -4.4798    6.6870    8.0955 N.pl3     1 <0>         0.0343
      8 O1         -5.3134    6.1363    8.7922 O.2       1 <0>        -0.1645
      9 O2         -3.8419    7.6263    8.5365 O.3       1 <0>        -0.1655
     10 O3         -3.5799    4.8999    2.8593 O.3       1 <0>        -0.2866
     11 C7         -2.5879    5.5926    2.0989 C.3       1 <0>         0.2108
     12 H1         -2.7708    6.6657    2.1547 H         1 <0>         0.1189
     13 C8         -2.6551    5.1385    0.6384 C.3       1 <0>         0.0604
     14 H2         -1.9268    5.6956    0.0489 H         1 <0>         0.0989
     15 C9         -2.3381    3.6419    0.5620 C.3       1 <0>         0.0941
     16 H3         -2.3291    3.3238   -0.4805 H         1 <0>         0.0705
     17 C10        -0.9622    3.3900    1.1864 C.3       1 <0>         0.0785
     18 H4         -0.1990    3.9110    0.6083 H         1 <0>         0.0990
     19 C11        -0.9589    3.9119    2.6256 C.3       1 <0>         0.1009
     20 H5         -1.6936    3.3617    3.2135 H         1 <0>         0.0939
     21 O4         -1.2927    5.3015    2.6278 O.3       1 <0>        -0.3588
     22 C12         0.4310    3.7186    3.2353 C.3       1 <0>         0.0893
     23 O5          0.4038    4.0974    4.6129 O.3       1 <0>        -0.5670
     24 O6         -0.6872    1.9878    1.1863 O.3       1 <0>        -0.3314
     25 C13        -0.0187    1.5267    0.0104 C.3       1 <0>         0.2217
     26 H6         -0.5456    1.8879   -0.8727 H         1 <0>         0.0575
     27 C14         0.0021   -0.0041    0.0020 C.3       1 <0>         0.0678
     28 H7         -1.0196   -0.3820   -0.0348 H         1 <0>         0.0711
     29 C15         0.7722   -0.4897   -1.2298 C.3       1 <0>         0.0785
     30 H8          0.2540   -0.1692   -2.1336 H         1 <0>         0.0777
     31 C16         2.1813    0.1106   -1.2068 C.3       1 <0>         0.0908
     32 H9          2.7180   -0.1853   -2.1082 H         1 <0>         0.0739
     33 C17         2.0763    1.6370   -1.1517 C.3       1 <0>         0.1143
     34 H10         1.5768    1.9997   -2.0501 H         1 <0>         0.0790
     35 O7          1.3225    2.0200    0.0003 O.3       1 <0>        -0.3708
     36 C18         3.4791    2.2422   -1.0682 C.3       1 <0>         0.0890
     37 O8          3.3879    3.6667   -1.1341 O.3       1 <0>        -0.5706
     38 O9          2.8834   -0.3628   -0.0558 O.3       1 <0>        -0.5288
     39 O10         0.8598   -1.9159   -1.2072 O.3       1 <0>        -0.5470
     40 O11         0.6460   -0.4794    1.1858 O.3       1 <0>        -0.5217
     41 O12        -3.3304    2.9042    1.2784 O.3       1 <0>        -0.5314
     42 O13        -3.9672    5.3756    0.1244 O.3       1 <0>        -0.5458
     43 H11        -5.7051    4.6609    6.8327 H         1 <0>         0.1597
     44 H12        -5.3137    3.8738    4.5336 H         1 <0>         0.1551
     45 H13        -2.3265    6.8866    4.0187 H         1 <0>         0.1528
     46 H14        -2.7312    7.6743    6.3153 H         1 <0>         0.1554
     47 H15         0.7218    2.6714    3.1521 H         1 <0>         0.0756
     48 H16         1.1512    4.3391    2.7020 H         1 <0>         0.0554
     49 H17         1.2534    4.0005    5.0643 H         1 <0>         0.3839
     50 H18         3.9449    1.9511   -0.1268 H         1 <0>         0.0701
     51 H19         4.0821    1.8778   -1.8999 H         1 <0>         0.0645
     52 H20         4.2418    4.1181   -1.0867 H         1 <0>         0.3848
     53 H21         2.9828   -1.3242   -0.0236 H         1 <0>         0.3857
     54 H22         0.0023   -2.3627   -1.2131 H         1 <0>         0.3872
     55 H23         0.2136   -0.2049    2.0061 H         1 <0>         0.3811
     56 H24        -4.2278    3.0171    0.9362 H         1 <0>         0.3861
     57 H25        -4.2347    6.3047    0.1423 H         1 <0>         0.3902
@<TRIPOS>BOND
     1    1    6 ar
     2    1    2 ar
     3    1   43 1
     4    2    3 ar
     5    2   44 1
     6    3    4 ar
     7    3   10 1
     8    4    5 ar
     9    4   45 1
    10    5    6 ar
    11    5   46 1
    12    6    7 1
    13    7    8 2
    14    7    9 1
    15   10   11 1
    16   11   12 1
    17   11   21 1
    18   11   13 1
    19   13   14 1
    20   13   15 1
    21   13   42 1
    22   15   16 1
    23   15   17 1
    24   15   41 1
    25   17   18 1
    26   17   19 1
    27   17   24 1
    28   19   20 1
    29   19   21 1
    30   19   22 1
    31   22   23 1
    32   22   47 1
    33   22   48 1
    34   23   49 1
    35   24   25 1
    36   25   26 1
    37   25   35 1
    38   25   27 1
    39   27   28 1
    40   27   29 1
    41   27   40 1
    42   29   30 1
    43   29   31 1
    44   29   39 1
    45   31   32 1
    46   31   33 1
    47   31   38 1
    48   33   34 1
    49   33   35 1
    50   33   36 1
    51   36   37 1
    52   36   50 1
    53   36   51 1
    54   37   52 1
    55   38   53 1
    56   39   54 1
    57   40   55 1
    58   41   56 1
    59   42   57 1
@<TRIPOS>MOLECULE
ZINC37246086
   57    59     0     0     0
SMALL
USER_CHARGES

@<TRIPOS>ATOM
      1 C1         -0.6820    0.4494   -3.0630 C.ar      1 <0>        -0.1507
      2 C2          0.3969    1.0841   -3.6508 C.ar      1 <0>        -0.0291
      3 C3          1.6248    1.0898   -3.0182 C.ar      1 <0>        -0.1908
      4 C4          1.7751    0.4585   -1.7918 C.ar      1 <0>         0.1924
      5 C5          0.6912   -0.1771   -1.2042 C.ar      1 <0>        -0.0831
      6 C6         -0.5349   -0.1804   -1.8412 C.ar      1 <0>        -0.0266
      7 N1          0.8481   -0.8519    0.1037 N.pl3     1 <0>         0.0401
      8 O1         -0.0970   -1.4057    0.6154 O.2       1 <0>        -0.1779
      9 O2          1.9213   -0.8494    0.6603 O.3       1 <0>        -0.1338
     10 O3          2.9822    0.4623   -1.1677 O.3       1 <0>        -0.2880
     11 C7          4.0537    1.1356   -1.8315 C.3       1 <0>         0.2081
     12 H1          3.7581    2.1617   -2.0503 H         1 <0>         0.1195
     13 C8          5.2900    1.1420   -0.9287 C.3       1 <0>         0.0702
     14 H2          6.0952    1.6905   -1.4175 H         1 <0>         0.1022
     15 C9          5.7346   -0.3017   -0.6748 C.3       1 <0>         0.1240
     16 H3          4.9488   -0.8369   -0.1418 H         1 <0>         0.0928
     17 C10         5.9999   -0.9865   -2.0191 C.3       1 <0>         0.0762
     18 H4          6.2635   -2.0306   -1.8502 H         1 <0>         0.1021
     19 C11         4.7362   -0.9106   -2.8798 C.3       1 <0>         0.0737
     20 H5          3.9278   -1.4510   -2.3871 H         1 <0>         0.0862
     21 O4          4.3596    0.4574   -3.0516 O.3       1 <0>        -0.3557
     22 C12         5.0115   -1.5398   -4.2470 C.3       1 <0>         0.0824
     23 O5          3.8022   -1.5743   -5.0076 O.3       1 <0>        -0.5605
     24 O6          7.0753   -0.3247   -2.6881 O.3       1 <0>        -0.3696
     25 C13         7.9008   -1.1956   -3.4641 C.3       1 <0>         0.2049
     26 H6          7.2729   -1.8273   -4.0925 H         1 <0>         0.1021
     27 C14         8.8330   -0.3624   -4.3476 C.3       1 <0>         0.0664
     28 H7          8.2406    0.2960   -4.9830 H         1 <0>         0.0702
     29 C15         9.7527    0.4778   -3.4562 C.3       1 <0>         0.0852
     30 H8          9.1546    1.1757   -2.8704 H         1 <0>         0.0844
     31 C16        10.5226   -0.4532   -2.5145 C.3       1 <0>         0.0923
     32 H9         11.1385    0.1402   -1.8389 H         1 <0>         0.0684
     33 C17         9.5251   -1.2829   -1.7018 C.3       1 <0>         0.1036
     34 H10         8.9167   -0.6198   -1.0868 H         1 <0>         0.1051
     35 O7          8.6805   -2.0160   -2.5917 O.3       1 <0>        -0.3557
     36 C18        10.2865   -2.2579   -0.8015 C.3       1 <0>         0.0907
     37 O8          9.3602   -2.9653    0.0252 O.3       1 <0>        -0.5619
     38 O9         11.3572   -1.3240   -3.2809 O.3       1 <0>        -0.5340
     39 O10        10.6742    1.2050   -4.2710 O.3       1 <0>        -0.5541
     40 O11         9.6207   -1.2317   -5.1637 O.3       1 <0>        -0.5172
     41 O12         6.9299   -0.3031    0.1085 O.3       1 <0>        -0.5408
     42 O13         4.9704    1.7701    0.3144 O.3       1 <0>        -0.5428
     43 H11        -1.6422    0.4496   -3.5573 H         1 <0>         0.1486
     44 H12         0.2795    1.5754   -4.6054 H         1 <0>         0.1451
     45 H13         2.4673    1.5850   -3.4780 H         1 <0>         0.1549
     46 H14        -1.3790   -0.6753   -1.3842 H         1 <0>         0.1588
     47 H15         5.7570   -0.9465   -4.7765 H         1 <0>         0.0601
     48 H16         5.3845   -2.5549   -4.1113 H         1 <0>         0.0664
     49 H17         3.9023   -1.9616   -5.8880 H         1 <0>         0.3849
     50 H18        10.8380   -2.9673   -1.4187 H         1 <0>         0.0619
     51 H19        10.9841   -1.7036   -0.1737 H         1 <0>         0.0577
     52 H20         9.7740   -3.6025    0.6234 H         1 <0>         0.3790
     53 H21        12.0115   -0.8640   -3.8244 H         1 <0>         0.3820
     54 H22        10.2533    1.8104   -4.8966 H         1 <0>         0.3835
     55 H23         9.1013   -1.7972   -5.7514 H         1 <0>         0.3732
     56 H24         6.8075    0.0153    1.0133 H         1 <0>         0.3891
     57 H25         4.6764    2.6872    0.2275 H         1 <0>         0.3843
@<TRIPOS>BOND
     1    1    6 ar
     2    1    2 ar
     3    1   43 1
     4    2    3 ar
     5    2   44 1
     6    3    4 ar
     7    3   45 1
     8    4    5 ar
     9    4   10 1
    10    5    6 ar
    11    5    7 1
    12    6   46 1
    13    7    8 2
    14    7    9 1
    15   10   11 1
    16   11   12 1
    17   11   21 1
    18   11   13 1
    19   13   14 1
    20   13   15 1
    21   13   42 1
    22   15   16 1
    23   15   17 1
    24   15   41 1
    25   17   18 1
    26   17   19 1
    27   17   24 1
    28   19   20 1
    29   19   21 1
    30   19   22 1
    31   22   23 1
    32   22   47 1
    33   22   48 1
    34   23   49 1
    35   24   25 1
    36   25   26 1
    37   25   35 1
    38   25   27 1
    39   27   28 1
    40   27   29 1
    41   27   40 1
    42   29   30 1
    43   29   31 1
    44   29   39 1
    45   31   32 1
    46   31   33 1
    47   31   38 1
    48   33   34 1
    49   33   35 1
    50   33   36 1
    51   36   37 1
    52   36   50 1
    53   36   51 1
    54   37   52 1
    55   38   53 1
    56   39   54 1
    57   40   55 1
    58   41   56 1
    59   42   57 1
@<TRIPOS>MOLECULE
ZINC43509292
   69    70     0     0     0
SMALL
NO_CHARGES

@<TRIPOS>ATOM
      1 C1          1.6576    1.9858    2.3234 C.3       1 <0>        -0.1918
      2 C2          1.5349    0.4637    2.2284 C.3       1 <0>         0.0895
      3 C3          0.2367    0.0930    1.5128 C.3       1 <0>         0.0687
      4 H1          0.2439   -0.9679    1.2669 H         1 <0>         0.0861
      5 O1         -0.8711    0.4137    2.3457 O.3       1 <0>        -0.3216
      6 C4         -0.9413   -0.2846    3.5802 C.3       1 <0>         0.2585
      7 C5          0.3228   -0.1082    4.4111 C.3       1 <0>         0.1466
      8 C6          1.6099   -0.1795    3.6059 C.3       1 <0>         0.1696
      9 C7          2.7279    0.5155    4.4075 C.3       1 <0>        -0.1830
     10 O2          1.9887   -1.5591    3.4501 O.3       1 <0>        -0.5350
     11 C8          0.2461    1.2136    5.1867 C.3       1 <0>        -0.1849
     12 O3          0.3545   -1.1716    5.3894 O.3       1 <0>        -0.5297
     13 C9         -1.2047   -1.7739    3.3372 C.3       1 <0>        -0.4348
     14 O4         -2.0524    0.2419    4.3309 O.3       1 <0>        -0.3265
     15 C10        -3.2601   -0.5079    4.1845 C.3       1 <0>         0.1078
     16 C11        -3.7548   -0.4040    2.7395 C.3       1 <0>         0.0962
     17 H2         -4.6536   -1.0088    2.6186 H         1 <0>         0.0688
     18 O5         -4.0541    0.9601    2.4368 O.3       1 <0>        -0.3518
     19 C12        -5.0814    1.5270    3.2525 C.3       1 <0>         0.2676
     20 C13        -4.6400    1.5007    4.7182 C.3       1 <0>         0.1086
     21 C14        -4.3301    0.0566    5.1242 C.3       1 <0>         0.1668
     22 C15        -3.8128    0.0294    6.5638 C.3       1 <0>        -0.1760
     23 O6         -5.5171   -0.7329    5.0259 O.3       1 <0>        -0.5434
     24 C16        -3.3861    2.3604    4.8900 C.3       1 <0>        -0.1803
     25 O7         -5.6888    2.0138    5.5421 O.3       1 <0>        -0.5557
     26 C17        -6.3673    0.7135    3.0923 C.3       1 <0>        -0.2347
     27 O8         -5.3185    2.8776    2.8504 O.3       1 <0>        -0.5415
     28 C18        -2.6673   -0.9108    1.7902 C.3       1 <0>        -0.0578
     29 O9         -2.8332   -0.3027    0.5077 O.3       1 <0>        -0.5451
     30 C19        -2.9967   -1.9744    4.5320 C.3       1 <0>        -0.2050
     31 C20         0.1363    0.8958    0.2092 C.3       1 <0>         0.0825
     32 O10        -0.9661    0.4152   -0.5626 O.3       1 <0>        -0.5505
     33 O11         2.6363   -0.0220    1.4380 O.3       1 <0>        -0.5541
     34 H3          2.6137    2.2456    2.7778 H         1 <0>         0.0782
     35 H4          1.6006    2.4180    1.3244 H         1 <0>         0.0693
     36 H5          0.8457    2.3782    2.9359 H         1 <0>         0.0811
     37 H6          2.5000    1.5771    4.5037 H         1 <0>         0.0733
     38 H7          2.7967    0.0674    5.3988 H         1 <0>         0.0749
     39 H8          3.6778    0.3935    3.8870 H         1 <0>         0.0688
     40 H9          2.8460   -1.6855    3.0210 H         1 <0>         0.3817
     41 H10        -0.6222    1.1984    5.8455 H         1 <0>         0.0794
     42 H11         1.1511    1.3391    5.7811 H         1 <0>         0.0759
     43 H12         0.1548    2.0422    4.4844 H         1 <0>         0.0736
     44 H13        -0.4035   -1.1765    5.9898 H         1 <0>         0.3730
     45 H14        -0.2589   -2.2859    3.1597 H         1 <0>         0.0858
     46 H15        -1.6922   -2.2041    4.2120 H         1 <0>         0.1828
     47 H16        -1.8503   -1.8914    2.4669 H         1 <0>         0.1567
     48 H17        -2.9097    0.6353    6.6369 H         1 <0>         0.0788
     49 H18        -4.5751    0.4313    7.2314 H         1 <0>         0.0718
     50 H19        -3.5852   -0.9978    6.8488 H         1 <0>         0.0685
     51 H20        -6.2382   -0.4315    5.5954 H         1 <0>         0.3943
     52 H21        -3.6286    3.4024    4.6814 H         1 <0>         0.0590
     53 H22        -3.0210    2.2701    5.9131 H         1 <0>         0.0606
     54 H23        -2.6153    2.0212    4.1979 H         1 <0>         0.1063
     55 H24        -5.9405    2.9245    5.3367 H         1 <0>         0.3884
     56 H25        -6.2115   -0.2928    3.4812 H         1 <0>         0.1164
     57 H26        -7.1736    1.1958    3.6449 H         1 <0>         0.0710
     58 H27        -6.6329    0.6579    2.0366 H         1 <0>         0.0564
     59 H28        -5.6012    2.9701    1.9303 H         1 <0>         0.3866
     60 H29        -1.6867   -0.6531    2.1903 H         1 <0>         0.2008
     61 H30        -2.7465   -1.9935    1.6918 H         1 <0>         0.0340
     62 H31        -2.2242   -0.6339   -0.1664 H         1 <0>         0.3705
     63 H32        -2.2102   -2.0340    5.2843 H         1 <0>         0.0863
     64 H33        -3.9089   -2.4246    4.9236 H         1 <0>         0.0749
     65 H34        -2.6833   -2.5096    3.6356 H         1 <0>         0.1116
     66 H35        -0.0154    1.9498    0.4423 H         1 <0>         0.0666
     67 H36         1.0577    0.7789   -0.3614 H         1 <0>         0.0606
     68 H37        -1.0442    0.8253   -1.4348 H         1 <0>         0.3849
     69 H38         2.6615    0.3326    0.5387 H         1 <0>         0.3834
@<TRIPOS>BOND
     1    1    2 1
     2    1   34 1
     3    1   35 1
     4    1   36 1
     5    2    8 1
     6    2    3 1
     7    2   33 1
     8    3    4 1
     9    3    5 1
    10    3   31 1
    11    5    6 1
    12    6    7 1
    13    6   13 1
    14    6   14 1
    15    7    8 1
    16    7   11 1
    17    7   12 1
    18    8    9 1
    19    8   10 1
    20    9   37 1
    21    9   38 1
    22    9   39 1
    23   10   40 1
    24   11   41 1
    25   11   42 1
    26   11   43 1
    27   12   44 1
    28   13   45 1
    29   13   46 1
    30   13   47 1
    31   14   15 1
    32   15   21 1
    33   15   16 1
    34   15   30 1
    35   16   17 1
    36   16   18 1
    37   16   28 1
    38   18   19 1
    39   19   20 1
    40   19   26 1
    41   19   27 1
    42   20   21 1
    43   20   24 1
    44   20   25 1
    45   21   22 1
    46   21   23 1
    47   22   48 1
    48   22   49 1
    49   22   50 1
    50   23   51 1
    51   24   52 1
    52   24   53 1
    53   24   54 1
    54   25   55 1
    55   26   56 1
    56   26   57 1
    57   26   58 1
    58   27   59 1
    59   28   29 1
    60   28   60 1
    61   28   61 1
    62   29   62 1
    63   30   63 1
    64   30   64 1
    65   30   65 1
    66   31   32 1
    67   31   66 1
    68   31   67 1
    69   32   68 1
    70   33   69 1
@<TRIPOS>MOLECULE
ZINC00363259
   39    41     0     0     0
SMALL
USER_CHARGES
4,6-dihydrazino-N,N-diphenyl-1,3,5-triazin-2-amine
@<TRIPOS>ATOM
      1 C1         -1.9801   -3.3526   -1.4865 C.ar      1 <0>        -0.1128
      2 C2         -1.0703   -2.6794   -2.2812 C.ar      1 <0>        -0.1113
      3 C3         -0.4117   -1.5689   -1.7909 C.ar      1 <0>        -0.1027
      4 C4         -0.6638   -1.1286   -0.4980 C.ar      1 <0>         0.1615
      5 C5         -1.5739   -1.8103    0.2996 C.ar      1 <0>        -0.1032
      6 C6         -2.2330   -2.9170   -0.1986 C.ar      1 <0>        -0.1116
      7 N1          0.0021   -0.0041    0.0020 N.pl3     1 <0>        -0.4993
      8 C7          1.2242   -0.1528    0.6670 C.ar      1 <0>         0.1615
      9 C8          2.4146   -0.1134   -0.0476 C.ar      1 <0>        -0.1031
     10 C9          3.6194   -0.2557    0.6124 C.ar      1 <0>        -0.1116
     11 C10         3.6409   -0.4475    1.9818 C.ar      1 <0>        -0.1128
     12 C11         2.4572   -0.4930    2.6954 C.ar      1 <0>        -0.1112
     13 C12         1.2493   -0.3460    2.0422 C.ar      1 <0>        -0.1028
     14 C13        -0.5479    1.2548   -0.1611 C.ar      1 <0>         0.6651
     15 N2         -1.7118    1.3954   -0.7875 N.ar      1 <0>        -0.6636
     16 C14        -2.2430    2.6046   -0.9394 C.ar      1 <0>         0.6556
     17 N3         -1.6049    3.6741   -0.4745 N.ar      1 <0>        -0.6395
     18 C15        -0.4382    3.5338    0.1472 C.ar      1 <0>         0.6557
     19 N4          0.0902    2.3241    0.3039 N.ar      1 <0>        -0.6637
     20 N5          0.2246    4.6442    0.6296 N.pl3     1 <0>        -0.5344
     21 N6         -0.3185    5.8872    0.4686 N.3       1 <0>        -0.5876
     22 N7         -3.4540    2.7501   -1.5853 N.pl3     1 <0>        -0.5343
     23 N8         -3.9969    3.9931   -1.7467 N.3       1 <0>        -0.5877
     24 H1         -2.4940   -4.2205   -1.8725 H         1 <0>         0.1254
     25 H2         -0.8747   -3.0224   -3.2865 H         1 <0>         0.1267
     26 H3          0.2987   -1.0437   -2.4121 H         1 <0>         0.1204
     27 H4         -1.7691   -1.4729    1.3068 H         1 <0>         0.1202
     28 H5         -2.9436   -3.4453    0.4197 H         1 <0>         0.1265
     29 H6          2.3983    0.0326   -1.1175 H         1 <0>         0.1202
     30 H7          4.5455   -0.2214    0.0580 H         1 <0>         0.1265
     31 H8          4.5842   -0.5623    2.4950 H         1 <0>         0.1254
     32 H9          2.4774   -0.6432    3.7647 H         1 <0>         0.1267
     33 H10         0.3252   -0.3816    2.6000 H         1 <0>         0.1204
     34 H11         1.0760    4.5419    1.0829 H         1 <0>         0.4187
     35 H12         0.2763    6.5964    0.8702 H         1 <0>         0.3591
     36 H13        -0.5022    6.0782   -0.5050 H         1 <0>         0.3497
     37 H14        -3.9196    1.9697   -1.9245 H         1 <0>         0.4187
     38 H15        -4.8789    3.9420   -2.2342 H         1 <0>         0.3591
     39 H16        -4.1012    4.4603   -0.8585 H         1 <0>         0.3498
@<TRIPOS>BOND
     1    1    6 ar
     2    1    2 ar
     3    1   24 1
     4    2    3 ar
     5    2   25 1
     6    3    4 ar
     7    3   26 1
     8    4    5 ar
     9    4    7 1
    10    5    6 ar
    11    5   27 1
    12    6   28 1
    13    7    8 1
    14    7   14 1
    15    8   13 ar
    16    8    9 ar
    17    9   10 ar
    18    9   29 1
    19   10   11 ar
    20   10   30 1
    21   11   12 ar
    22   11   31 1
    23   12   13 ar
    24   12   32 1
    25   13   33 1
    26   14   19 ar
    27   14   15 ar
    28   15   16 ar
    29   16   17 ar
    30   16   22 1
    31   17   18 ar
    32   18   19 ar
    33   18   20 1
    34   20   21 1
    35   20   34 1
    36   21   35 1
    37   21   36 1
    38   22   23 1
    39   22   37 1
    40   23   38 1
    41   23   39 1
@<TRIPOS>MOLECULE
ZINC38557515
   64    67     0     0     0
SMALL
USER_CHARGES

@<TRIPOS>ATOM
      1 C1         -0.0186    1.5211    0.0104 C.3       1 <0>        -0.1515
      2 C2          0.0021   -0.0041    0.0020 C.3       1 <0>        -0.0364
      3 C3         -1.4350   -0.5159    0.1977 C.3       1 <0>        -0.1054
      4 C4         -2.0028   -0.0271    1.5263 C.3       1 <0>        -0.1525
      5 C5         -1.1312   -0.4848    2.6937 C.3       1 <0>         0.1042
      6 H1         -1.5240   -0.0652    3.6234 H         1 <0>         0.0549
      7 C6          0.3091   -0.0082    2.4996 C.3       1 <0>        -0.1090
      8 C7          0.8456   -0.5246    1.1698 C.3       1 <0>        -0.0712
      9 H2          0.7880   -1.6223    1.1702 H         1 <0>         0.0772
     10 C8          2.3056   -0.1220    0.9789 C.3       1 <0>        -0.1180
     11 C9          2.8387   -0.8082   -0.2813 C.3       1 <0>        -0.1187
     12 C10         2.0381   -0.3638   -1.5051 C.3       1 <0>        -0.0631
     13 H3          2.3429   -1.0281   -2.3428 H         1 <0>         0.0570
     14 C11         0.5517   -0.5652   -1.3007 C.3       1 <0>        -0.0678
     15 H4          0.4083   -1.6774   -1.2271 H         1 <0>         0.0669
     16 C12        -0.2398   -0.1334   -2.5250 C.3       1 <0>        -0.1128
     17 C13         0.1240    1.2444   -3.0351 C.3       1 <0>        -0.1119
     18 C14         1.6026    1.5191   -3.1284 C.3       1 <0>        -0.0584
     19 C15         2.4132    1.0569   -1.9091 C.3       1 <0>        -0.0679
     20 H5          2.3489    1.7622   -1.0768 H         1 <0>         0.1132
     21 C16         3.8641    0.9999   -2.4750 C.3       1 <0>        -0.1364
     22 C17         3.6975    0.5134   -3.9278 C.3       1 <0>        -0.1381
     23 C18         2.2471    0.8294   -4.3381 C.3       1 <0>         0.0245
     24 H6          1.7125   -0.0902   -4.5760 H         1 <0>         0.1508
     25 N1          2.2348    1.7324   -5.4978 N.4       1 <0>        -0.5017
     26 C19         2.7438    1.0208   -6.6778 C.3       1 <0>        -0.0448
     27 C20         2.7310    1.9608   -7.8850 C.3       1 <0>        -0.0322
     28 N2          3.2401    1.2493   -9.0651 N.4       1 <0>        -0.6303
     29 C21         1.7952    3.0341   -3.2873 C.3       1 <0>        -0.1828
     30 O1         -1.1560   -1.9119    2.7804 O.3       1 <0>        -0.5657
     31 H7          0.9859    1.8991   -0.1797 H         1 <0>         0.0570
     32 H8         -0.6947    1.8796   -0.7658 H         1 <0>         0.0535
     33 H9         -0.3619    1.8745    0.9827 H         1 <0>         0.0627
     34 H10        -2.0578   -0.1475   -0.6188 H         1 <0>         0.0584
     35 H11        -1.4264   -1.6061    0.1795 H         1 <0>         0.0668
     36 H12        -2.0973    1.0563    1.5338 H         1 <0>         0.0733
     37 H13        -3.0084   -0.4499    1.6540 H         1 <0>         0.0629
     38 H14         0.3537    1.0758    2.5503 H         1 <0>         0.0777
     39 H15         0.9238   -0.4131    3.3133 H         1 <0>         0.0698
     40 H16         2.4082    0.9534    0.8899 H         1 <0>         0.0643
     41 H17         2.8868   -0.4630    1.8410 H         1 <0>         0.0651
     42 H18         3.8920   -0.5615   -0.4105 H         1 <0>         0.0665
     43 H19         2.7450   -1.8911   -0.1618 H         1 <0>         0.0677
     44 H20        -0.0668   -0.8687   -3.3295 H         1 <0>         0.0527
     45 H21        -1.3139   -0.1681   -2.3004 H         1 <0>         0.0807
     46 H22        -0.2926    1.3434   -4.0572 H         1 <0>         0.0473
     47 H23        -0.3623    2.0240   -2.4507 H         1 <0>         0.0932
     48 H24         4.3272    1.9873   -2.4489 H         1 <0>         0.0800
     49 H25         4.4705    0.2933   -1.9057 H         1 <0>         0.0958
     50 H26         4.3929    1.0431   -4.5813 H         1 <0>         0.0798
     51 H27         3.8800   -0.5601   -3.9891 H         1 <0>         0.1067
     52 H28         1.2906    2.0419   -5.6730 H         1 <0>         0.4349
     53 H29         3.7638    0.6864   -6.4885 H         1 <0>         0.1551
     54 H30         2.1106    0.1576   -6.8828 H         1 <0>         0.1555
     55 H31         1.7110    2.2952   -8.0743 H         1 <0>         0.1568
     56 H32         3.3643    2.8240   -7.6800 H         1 <0>         0.1564
     57 H33         4.1843    0.9397   -8.8898 H         1 <0>         0.4458
     58 H34         2.6539    0.4502   -9.2548 H         1 <0>         0.4460
     59 H35         1.3821    3.5460   -2.4182 H         1 <0>         0.0995
     60 H36         2.8587    3.2585   -3.3697 H         1 <0>         0.0724
     61 H37         1.2815    3.3733   -4.1869 H         1 <0>         0.0510
     62 H38        -2.0381   -2.2820    2.9222 H         1 <0>         0.3797
     63 H39         2.8210    2.5314   -5.3080 H         1 <0>         0.4344
     64 H40         3.2316    1.8692   -9.8611 H         1 <0>         0.4584
@<TRIPOS>BOND
     1    1    2 1
     2    1   31 1
     3    1   32 1
     4    1   33 1
     5    2    8 1
     6    2   14 1
     7    2    3 1
     8    3    4 1
     9    3   34 1
    10    3   35 1
    11    4    5 1
    12    4   36 1
    13    4   37 1
    14    5    6 1
    15    5    7 1
    16    5   30 1
    17    7    8 1
    18    7   38 1
    19    7   39 1
    20    8    9 1
    21    8   10 1
    22   10   11 1
    23   10   40 1
    24   10   41 1
    25   11   12 1
    26   11   42 1
    27   11   43 1
    28   12   13 1
    29   12   19 1
    30   12   14 1
    31   14   15 1
    32   14   16 1
    33   16   17 1
    34   16   44 1
    35   16   45 1
    36   17   18 1
    37   17   46 1
    38   17   47 1
    39   18   23 1
    40   18   19 1
    41   18   29 1
    42   19   20 1
    43   19   21 1
    44   21   22 1
    45   21   48 1
    46   21   49 1
    47   22   23 1
    48   22   50 1
    49   22   51 1
    50   23   24 1
    51   23   25 1
    52   25   26 1
    53   25   52 1
    54   25   63 1
    55   26   27 1
    56   26   53 1
    57   26   54 1
    58   27   28 1
    59   27   55 1
    60   27   56 1
    61   28   57 1
    62   28   58 1
    63   28   64 1
    64   29   59 1
    65   29   60 1
    66   29   61 1
    67   30   62 1
@<TRIPOS>MOLECULE
ZINC41023254
   30    31     0     0     0
SMALL
USER_CHARGES

@<TRIPOS>ATOM
      1 C1         -0.0126    1.3651   -0.1112 C.ar      1 <0>        -0.1452
      2 C2          1.1714    2.0793   -0.1199 C.ar      1 <0>        -0.0075
      3 C3          2.3832    1.4139   -0.0118 C.ar      1 <0>        -0.1896
      4 C4          2.4030    0.0236    0.1057 C.ar      1 <0>         0.2825
      5 C5          1.2110   -0.6842    0.1136 C.ar      1 <0>        -0.1585
      6 C6          0.0070   -0.0123    0.0052 C.ar      1 <0>        -0.1010
      7 C7         -1.2874   -0.7839    0.0141 C.3       1 <0>         0.5062
      8 F1         -2.3610    0.1048   -0.1069 F         1 <0>        -0.1739
      9 F2         -1.3023   -1.6819   -1.0586 F         1 <0>        -0.1753
     10 F3         -1.4005   -1.4911    1.2159 F         1 <0>        -0.1745
     11 N1          3.6224   -0.6542    0.2148 N.pl3     1 <0>        -0.8587
     12 S1          3.8936    2.3213   -0.0233 S.3       1 <0>         0.1175
     13 C8          4.5438    2.0463   -1.6376 C.ar      1 <0>         0.3575
     14 N2          3.8170    1.3772   -2.5207 N.ar      1 <0>        -0.6005
     15 C9          4.2756    1.1511   -3.7494 C.ar      1 <0>         0.4745
     16 C10         5.5354    1.6276   -4.1007 C.ar      1 <0>        -0.3692
     17 C11         6.2696    2.3261   -3.1465 C.ar      1 <0>         0.4752
     18 N3          5.7446    2.5187   -1.9387 N.ar      1 <0>        -0.5907
     19 N4          7.5289    2.8187   -3.4516 N.pl3     1 <0>        -0.8358
     20 N5          3.5091    0.4498   -4.6671 N.pl3     1 <0>        -0.8359
     21 H1         -0.9558    1.8852   -0.1910 H         1 <0>         0.1416
     22 H2          1.1523    3.1553   -0.2114 H         1 <0>         0.1431
     23 H3          1.2226   -1.7603    0.2040 H         1 <0>         0.1359
     24 H4          4.4556   -0.1575    0.2088 H         1 <0>         0.4051
     25 H5          3.6345   -1.6207    0.2964 H         1 <0>         0.4029
     26 H6          5.9340    1.4590   -5.0903 H         1 <0>         0.1355
     27 H7          7.9040    2.6776   -4.3349 H         1 <0>         0.4118
     28 H8          8.0350    3.3046   -2.7817 H         1 <0>         0.4085
     29 H9          2.6322    0.1203   -4.4154 H         1 <0>         0.4073
     30 H10         3.8496    0.2885   -5.5610 H         1 <0>         0.4111
@<TRIPOS>BOND
     1    1    6 ar
     2    1    2 ar
     3    1   21 1
     4    2    3 ar
     5    2   22 1
     6    3    4 ar
     7    3   12 1
     8    4    5 ar
     9    4   11 1
    10    5    6 ar
    11    5   23 1
    12    6    7 1
    13    7    8 1
    14    7    9 1
    15    7   10 1
    16   11   24 1
    17   11   25 1
    18   12   13 1
    19   13   18 ar
    20   13   14 ar
    21   14   15 ar
    22   15   16 ar
    23   15   20 1
    24   16   17 ar
    25   16   26 1
    26   17   18 ar
    27   17   19 1
    28   19   27 1
    29   19   28 1
    30   20   29 1
    31   20   30 1
@<TRIPOS>MOLECULE
ZINC43684080
   40    41     0     0     0
SMALL
USER_CHARGES

@<TRIPOS>ATOM
      1 C1         -0.1584    1.2923    0.2883 C.2       1 <0>        -0.0866
      2 C2          0.9893    2.0507    0.3428 C.2       1 <0>        -0.1095
      3 C3          2.2029    1.4135    0.2857 C.2       1 <0>        -0.0646
      4 S1          1.7131   -0.2982    0.1518 S.3       1 <0>         0.1443
      5 C4         -0.0556   -0.0578    0.1802 C.2       1 <0>        -0.2291
      6 C5         -1.1528   -1.0881    0.1039 C.3       1 <0>         0.0810
      7 N1         -1.5165   -1.3129   -1.3015 N.4       1 <0>        -0.3703
      8 C6         -0.3800   -1.9143   -2.0093 C.3       1 <0>        -0.0141
      9 C7         -0.7249   -2.0760   -3.4914 C.3       1 <0>        -0.1461
     10 C8         -1.9514   -2.9827   -3.6285 C.3       1 <0>        -0.1357
     11 C9         -3.1093   -2.3834   -2.8251 C.3       1 <0>        -0.1360
     12 C10        -2.6760   -2.2104   -1.3678 C.3       1 <0>         0.0074
     13 H1         -2.4077   -3.1813   -0.9513 H         1 <0>         0.1607
     14 C11        -3.8127   -1.6211   -0.5730 C.2       1 <0>         0.5084
     15 O1         -3.9067   -0.4182   -0.4495 O.2       1 <0>        -0.5229
     16 N2         -4.7249   -2.4307    0.0005 N.am      1 <0>        -0.8211
     17 C12         3.5196    1.9751    0.3228 C.1       1 <0>         0.0101
     18 C13         4.5991    2.4355    0.3533 C.1       1 <0>        -0.2141
     19 C14         5.9527    3.0128    0.3915 C.3       1 <0>         0.1366
     20 N3          6.9472    1.9355    0.3008 N.4       1 <0>        -0.6375
     21 H2         -1.1285    1.7646    0.3355 H         1 <0>         0.1614
     22 H3          0.9353    3.1259    0.4284 H         1 <0>         0.1592
     23 H4         -0.8046   -2.0229    0.5430 H         1 <0>         0.1459
     24 H5         -2.0247   -0.7316    0.6523 H         1 <0>         0.1579
     25 H6          0.4930   -1.2695   -1.9081 H         1 <0>         0.1283
     26 H7         -0.1606   -2.8915   -1.5791 H         1 <0>         0.1346
     27 H8         -0.9442   -1.0993   -3.9226 H         1 <0>         0.0914
     28 H9          0.1195   -2.5244   -4.0148 H         1 <0>         0.1185
     29 H10        -2.2354   -3.0554   -4.6783 H         1 <0>         0.1052
     30 H11        -1.7160   -3.9750   -3.2438 H         1 <0>         0.0883
     31 H12        -3.3781   -1.4131   -3.2426 H         1 <0>         0.0994
     32 H13        -3.9692   -3.0516   -2.8723 H         1 <0>         0.1216
     33 H14        -4.6498   -3.3927   -0.0983 H         1 <0>         0.4146
     34 H15        -5.4566   -2.0513    0.5120 H         1 <0>         0.4264
     35 H16         6.0799    3.6964   -0.4478 H         1 <0>         0.1623
     36 H17         6.0897    3.5560    1.3265 H         1 <0>         0.1626
     37 H18         6.8294    1.3027    1.0778 H         1 <0>         0.4398
     38 H19         6.8204    1.4326   -0.5647 H         1 <0>         0.4391
     39 H20        -1.7500   -0.4310   -1.7326 H         1 <0>         0.4324
     40 H21         7.8750    2.3312    0.3270 H         1 <0>         0.4501
@<TRIPOS>BOND
     1    1    5 2
     2    1    2 1
     3    1   21 1
     4    2    3 2
     5    2   22 1
     6    3    4 1
     7    3   17 1
     8    4    5 1
     9    5    6 1
    10    6    7 1
    11    6   23 1
    12    6   24 1
    13    7   12 1
    14    7    8 1
    15    7   39 1
    16    8    9 1
    17    8   25 1
    18    8   26 1
    19    9   10 1
    20    9   27 1
    21    9   28 1
    22   10   11 1
    23   10   29 1
    24   10   30 1
    25   11   12 1
    26   11   31 1
    27   11   32 1
    28   12   13 1
    29   12   14 1
    30   14   15 2
    31   14   16 am
    32   16   33 1
    33   16   34 1
    34   17   18 3
    35   18   19 1
    36   19   20 1
    37   19   35 1
    38   19   36 1
    39   20   37 1
    40   20   38 1
    41   20   40 1
@<TRIPOS>MOLECULE
ZINC47872037
   43    43     0     0     0
SMALL
USER_CHARGES

@<TRIPOS>ATOM
      1 C1         -0.0187    1.5258    0.0104 C.3       1 <0>        -0.1602
      2 C2          0.0021   -0.0041    0.0020 C.3       1 <0>        -0.0796
      3 H1          0.5123   -0.3556   -0.8948 H         1 <0>         0.0769
      4 C3         -1.4333   -0.5336    0.0129 C.3       1 <0>        -0.1194
      5 C4         -2.1494   -0.0402    1.2717 C.3       1 <0>        -0.1169
      6 C5         -1.4095   -0.5471    2.5112 C.3       1 <0>        -0.1292
      7 C6          0.0259   -0.0175    2.5003 C.3       1 <0>         0.1450
      8 H2          0.0111    1.0724    2.5063 H         1 <0>         0.1244
      9 C7          0.7421   -0.5109    1.2415 C.3       1 <0>        -0.0947
     10 H3          0.7568   -1.6008    1.2356 H         1 <0>         0.0747
     11 C8          2.1775    0.0187    1.2307 C.3       1 <0>        -0.1529
     12 N1          0.7345   -0.5028    3.6872 N.pl3     1 <0>        -0.6769
     13 C9          0.6336    0.1663    4.8528 C.2       1 <0>         0.5614
     14 S1         -0.3225    1.5834    4.9464 S.2       1 <0>        -0.5830
     15 N2          1.2855   -0.2802    5.9447 N.pl3     1 <0>        -0.4722
     16 N3          2.0679   -1.4398    5.8681 N.am      1 <0>        -0.5443
     17 C10         2.7198   -1.8863    6.9600 C.2       1 <0>         0.5172
     18 O1          2.6290   -1.2842    8.0089 O.2       1 <0>        -0.5152
     19 C11         3.5614   -3.1336    6.8776 C.3       1 <0>         0.1318
     20 N4          4.1601   -3.4061    8.1866 N.am      1 <0>        -0.7370
     21 C12         4.9583   -4.4794    8.3523 C.2       1 <0>         0.7121
     22 O2          5.1814   -5.2215    7.4153 O.2       1 <0>        -0.5922
     23 N5          5.5091   -4.7301    9.5565 N.am      1 <0>        -0.8614
     24 H4          1.0039    1.9031    0.0027 H         1 <0>         0.0584
     25 H5         -0.5459    1.8868   -0.8726 H         1 <0>         0.0577
     26 H6         -0.5289    1.8773    0.9072 H         1 <0>         0.0659
     27 H7         -1.9605   -0.1726   -0.8702 H         1 <0>         0.0675
     28 H8         -1.4185   -1.6235    0.0069 H         1 <0>         0.0621
     29 H9         -2.1642    1.0497    1.2777 H         1 <0>         0.0732
     30 H10        -3.1720   -0.4175    1.2794 H         1 <0>         0.0674
     31 H11        -1.9196   -0.1955    3.4080 H         1 <0>         0.0818
     32 H12        -1.3947   -1.6369    2.5052 H         1 <0>         0.0598
     33 H13         2.1627    1.1086    1.2367 H         1 <0>         0.0657
     34 H14         2.7046   -0.3424    2.1137 H         1 <0>         0.0477
     35 H15         2.6876   -0.3328    0.3339 H         1 <0>         0.0621
     36 H16         1.2762   -1.3057    3.6342 H         1 <0>         0.3898
     37 H17         1.2129    0.2014    6.7836 H         1 <0>         0.4593
     38 H18         2.1405   -1.9213    5.0292 H         1 <0>         0.4235
     39 H19         2.9353   -3.9755    6.5821 H         1 <0>         0.1094
     40 H20         4.3508   -2.9912    6.1395 H         1 <0>         0.1094
     41 H21         3.9821   -2.8140    8.9340 H         1 <0>         0.4108
     42 H22         5.3311   -4.1380   10.3040 H         1 <0>         0.4005
     43 H23         6.0836   -5.5025    9.6758 H         1 <0>         0.4196
@<TRIPOS>BOND
     1    1    2 1
     2    1   24 1
     3    1   25 1
     4    1   26 1
     5    2    3 1
     6    2    9 1
     7    2    4 1
     8    4    5 1
     9    4   27 1
    10    4   28 1
    11    5    6 1
    12    5   29 1
    13    5   30 1
    14    6    7 1
    15    6   31 1
    16    6   32 1
    17    7    8 1
    18    7    9 1
    19    7   12 1
    20    9   10 1
    21    9   11 1
    22   11   33 1
    23   11   34 1
    24   11   35 1
    25   12   13 1
    26   12   36 1
    27   13   14 2
    28   13   15 1
    29   15   16 1
    30   15   37 1
    31   16   17 am
    32   16   38 1
    33   17   18 2
    34   17   19 1
    35   19   20 1
    36   19   39 1
    37   19   40 1
    38   20   21 am
    39   20   41 1
    40   21   22 2
    41   21   23 am
    42   23   42 1
    43   23   43 1
@<TRIPOS>MOLECULE
ZINC01081589
   35    36     0     0     0
SMALL
USER_CHARGES
2-(4-bromophenyl)amino-5-(1,2-dihydroxyethyl)tetrahydrofuran-3,4-diol
@<TRIPOS>ATOM
      1 C1          5.3407    4.6390    1.9031 C.ar      1 <0>        -0.1865
      2 C2          6.2272    5.6661    1.6448 C.ar      1 <0>        -0.0416
      3 C3          7.5176    5.6089    2.1406 C.ar      1 <0>        -0.1412
      4 C4          7.9225    4.5258    2.9003 C.ar      1 <0>        -0.0425
      5 C5          7.0388    3.4983    3.1663 C.ar      1 <0>        -0.1816
      6 C6          5.7425    3.5531    2.6702 C.ar      1 <0>         0.2252
      7 N1          4.8463    2.5151    2.9377 N.pl3     1 <0>        -0.7267
      8 C7          3.4794    2.5743    2.4139 C.3       1 <0>         0.2714
      9 H1          3.2130    3.6025    2.1690 H         1 <0>         0.1120
     10 C8          2.4804    1.9908    3.4446 C.3       1 <0>         0.0331
     11 H2          2.9083    1.1337    3.9646 H         1 <0>         0.0901
     12 C9          1.3156    1.5573    2.5133 C.3       1 <0>         0.0970
     13 H3          0.6540    2.3976    2.3028 H         1 <0>         0.0939
     14 C10         2.0636    1.1140    1.2377 C.3       1 <0>         0.0642
     15 H4          2.1765    0.0299    1.2315 H         1 <0>         0.1019
     16 O1          3.3534    1.7367    1.2537 O.3       1 <0>        -0.3718
     17 C11         1.2864    1.5618   -0.0018 C.3       1 <0>         0.1033
     18 H5          1.1856    2.6471    0.0050 H         1 <0>         0.1106
     19 C12         2.0397    1.1274   -1.2607 C.3       1 <0>         0.0483
     20 O2          1.3761    1.6453   -2.4154 O.3       1 <0>        -0.5646
     21 O3         -0.0110    0.9628    0.0073 O.3       1 <0>        -0.5381
     22 O4          0.5890    0.4661    3.0820 O.3       1 <0>        -0.5456
     23 O5          2.0537    2.9911    4.3716 O.3       1 <0>        -0.5448
     24 Br1         8.7306    7.0138    1.7786 Br        1 <0>        -0.0554
     25 H6          4.3349    4.6820    1.5120 H         1 <0>         0.1301
     26 H7          5.9141    6.5126    1.0518 H         1 <0>         0.1339
     27 H8          8.9306    4.4835    3.2854 H         1 <0>         0.1342
     28 H9          7.3553    2.6532    3.7596 H         1 <0>         0.1312
     29 H10         5.1291    1.7552    3.4702 H         1 <0>         0.4045
     30 H11         3.0592    1.5115   -1.2247 H         1 <0>         0.0644
     31 H12         2.0631    0.0389   -1.3127 H         1 <0>         0.0492
     32 H13         1.7999    1.4086   -3.2518 H         1 <0>         0.3820
     33 H14         0.0021   -0.0041    0.0020 H         1 <0>         0.3781
     34 H15         0.1020    0.6941    3.8857 H         1 <0>         0.3929
     35 H16         2.7700    3.3683    4.9005 H         1 <0>         0.3891
@<TRIPOS>BOND
     1    1    6 ar
     2    1    2 ar
     3    1   25 1
     4    2    3 ar
     5    2   26 1
     6    3    4 ar
     7    3   24 1
     8    4    5 ar
     9    4   27 1
    10    5    6 ar
    11    5   28 1
    12    6    7 1
    13    7    8 1
    14    7   29 1
    15    8    9 1
    16    8   16 1
    17    8   10 1
    18   10   11 1
    19   10   12 1
    20   10   23 1
    21   12   13 1
    22   12   14 1
    23   12   22 1
    24   14   15 1
    25   14   16 1
    26   14   17 1
    27   17   18 1
    28   17   19 1
    29   17   21 1
    30   19   20 1
    31   19   30 1
    32   19   31 1
    33   20   32 1
    34   21   33 1
    35   22   34 1
    36   23   35 1
@<TRIPOS>MOLECULE
ZINC13639718
   42    45     0     0     0
SMALL
USER_CHARGES
(3aR,4S,9bS)-4-(2,4-dihydroxyphenyl)-3a,4,5,9b-tetrahydro-3H-cyclopenta[c]quinoline-6-carboxamide
@<TRIPOS>ATOM
      1 C1          4.6314   -2.1770   -0.2612 C.ar      1 <0>        -0.1682
      2 C2          4.1581   -3.4566   -0.0337 C.ar      1 <0>        -0.0560
      3 C3          2.7985   -3.7053    0.0839 C.ar      1 <0>        -0.1340
      4 C4          1.9027   -2.6551   -0.0244 C.ar      1 <0>         0.2155
      5 C5          2.3814   -1.3519   -0.2607 C.ar      1 <0>        -0.2187
      6 C6          3.7527   -1.1223   -0.3750 C.ar      1 <0>        -0.0498
      7 C7          1.4335   -0.2292   -0.3813 C.2       1 <0>         0.5689
      8 O1          0.2368   -0.4438   -0.4067 O.2       1 <0>        -0.5374
      9 N1          1.8933    1.0351   -0.4633 N.am      1 <0>        -0.8493
     10 N2          0.5320   -2.8379    0.0707 N.pl3     1 <0>        -0.6064
     11 C8          0.1859   -4.0097    0.8758 C.3       1 <0>         0.1330
     12 H1         -0.8973   -4.1293    0.8967 H         1 <0>         0.1131
     13 C9          0.8253   -5.2565    0.2605 C.3       1 <0>        -0.0792
     14 H2          0.4657   -5.4740   -0.7453 H         1 <0>         0.1068
     15 C10         2.3612   -5.1186    0.3347 C.3       1 <0>        -0.0170
     16 H3          2.8411   -5.7886   -0.3786 H         1 <0>         0.0991
     17 C11         2.7017   -5.5378    1.7464 C.2       1 <0>        -0.1436
     18 C12         1.7367   -6.2624    2.2551 C.2       1 <0>        -0.1731
     19 C13         0.6159   -6.4373    1.2496 C.3       1 <0>        -0.1034
     20 C14         0.6981   -3.8235    2.2808 C.ar      1 <0>        -0.1281
     21 C15         1.8626   -3.1132    2.5027 C.ar      1 <0>        -0.1067
     22 C16         2.3345   -2.9404    3.7896 C.ar      1 <0>        -0.1468
     23 C17         1.6397   -3.4801    4.8630 C.ar      1 <0>         0.1204
     24 C18         0.4714   -4.1930    4.6431 C.ar      1 <0>        -0.1743
     25 C19        -0.0029   -4.3605    3.3510 C.ar      1 <0>         0.1380
     26 O2         -1.1510   -5.0541    3.1327 O.3       1 <0>        -0.4933
     27 O3          2.1046   -3.3102    6.1287 O.3       1 <0>        -0.4985
     28 H4          5.6938   -2.0043   -0.3502 H         1 <0>         0.1296
     29 H5          4.8578   -4.2747    0.0535 H         1 <0>         0.1285
     30 H6          4.1233   -0.1234   -0.5515 H         1 <0>         0.1274
     31 H7          2.8478    1.2063   -0.4430 H         1 <0>         0.4016
     32 H8          1.2698    1.7735   -0.5466 H         1 <0>         0.4066
     33 H9          0.0824   -2.0082    0.4278 H         1 <0>         0.3887
     34 H10         3.6134   -5.2767    2.2632 H         1 <0>         0.1248
     35 H11         1.7393   -6.6779    3.2520 H         1 <0>         0.1239
     36 H12         0.7101   -7.3921    0.7325 H         1 <0>         0.0844
     37 H13        -0.3546   -6.3595    1.7397 H         1 <0>         0.0757
     38 H14         2.4045   -2.6922    1.6687 H         1 <0>         0.1550
     39 H15         3.2446   -2.3847    3.9604 H         1 <0>         0.1278
     40 H16        -0.0704   -4.6140    5.4771 H         1 <0>         0.1335
     41 H17        -1.0317   -6.0133    3.1043 H         1 <0>         0.3893
     42 H18         1.7710   -2.5153    6.5668 H         1 <0>         0.3925
@<TRIPOS>BOND
     1    1    6 ar
     2    1    2 ar
     3    1   28 1
     4    2    3 ar
     5    2   29 1
     6    3   15 1
     7    3    4 ar
     8    4    5 ar
     9    4   10 1
    10    5    6 ar
    11    5    7 1
    12    6   30 1
    13    7    8 2
    14    7    9 am
    15    9   31 1
    16    9   32 1
    17   10   11 1
    18   10   33 1
    19   11   12 1
    20   11   13 1
    21   11   20 1
    22   13   14 1
    23   13   19 1
    24   13   15 1
    25   15   16 1
    26   15   17 1
    27   17   18 2
    28   17   34 1
    29   18   19 1
    30   18   35 1
    31   19   36 1
    32   19   37 1
    33   20   25 ar
    34   20   21 ar
    35   21   22 ar
    36   21   38 1
    37   22   23 ar
    38   22   39 1
    39   23   24 ar
    40   23   27 1
    41   24   25 ar
    42   24   40 1
    43   25   26 1
    44   26   41 1
    45   27   42 1
@<TRIPOS>MOLECULE
ZINC37333659
   31    32     0     0     0
SMALL
USER_CHARGES

@<TRIPOS>ATOM
      1 C1         -0.0418    1.5107   -0.0723 C.ar      1 <0>        -0.0281
      2 C2          1.1706    2.1587    0.0782 C.ar      1 <0>        -0.1681
      3 C3          2.3543    1.4815   -0.1724 C.ar      1 <0>         0.1835
      4 C4          2.3173    0.1463   -0.5761 C.ar      1 <0>         0.1501
      5 C5          1.0974   -0.4952   -0.7243 C.ar      1 <0>        -0.0600
      6 C6         -0.0784    0.1881   -0.4722 C.ar      1 <0>        -0.6694
      7 S1         -1.6275   -0.6300   -0.6608 S.o2      1 <0>         2.7044
      8 O1         -1.3726   -2.0205   -0.5165 O.2       1 <0>        -0.9661
      9 O2         -2.5559    0.0637    0.1614 O.2       1 <0>        -0.9624
     10 N1         -2.1161   -0.3984   -2.2260 N.pl3     1 <0>        -1.2492
     11 N2          3.5086   -0.5432   -0.8311 N.pl3     1 <0>        -0.8798
     12 N3          3.5829    2.1355   -0.0212 N.pl3     1 <0>        -0.6763
     13 C7          3.6248    3.4335    0.4967 C.ar      1 <0>         0.1806
     14 C8          2.8425    3.7706    1.5938 C.ar      1 <0>        -0.1283
     15 C9          2.8857    5.0535    2.1033 C.ar      1 <0>        -0.0767
     16 C10         3.7072    6.0036    1.5219 C.ar      1 <0>        -0.0446
     17 C11         4.4878    5.6716    0.4286 C.ar      1 <0>        -0.0755
     18 C12         4.4538    4.3877   -0.0817 C.ar      1 <0>        -0.0594
     19 Cl1         5.4393    3.9692   -1.4482 Cl        1 <0>        -0.0491
     20 Cl2         3.7581    7.6151    2.1653 Cl        1 <0>        -0.0516
     21 H1         -0.9627    2.0384    0.1276 H         1 <0>         0.1439
     22 H2          1.1955    3.1923    0.3904 H         1 <0>         0.1419
     23 H3          1.0651   -1.5286   -1.0366 H         1 <0>         0.1441
     24 H4         -2.6628   -1.0671   -2.6674 H         1 <0>         0.4209
     25 H5         -1.8557    0.4060   -2.7014 H         1 <0>         0.4171
     26 H6          4.3614   -0.0928   -0.7272 H         1 <0>         0.3931
     27 H7          3.4812   -1.4713   -1.1116 H         1 <0>         0.4062
     28 H8          4.4051    1.6881   -0.2757 H         1 <0>         0.4109
     29 H9          2.2005    3.0302    2.0477 H         1 <0>         0.1511
     30 H10         2.2775    5.3158    2.9563 H         1 <0>         0.1474
     31 H11         5.1276    6.4151   -0.0232 H         1 <0>         0.1493
@<TRIPOS>BOND
     1    1    6 ar
     2    1    2 ar
     3    1   21 1
     4    2    3 ar
     5    2   22 1
     6    3    4 ar
     7    3   12 1
     8    4    5 ar
     9    4   11 1
    10    5    6 ar
    11    5   23 1
    12    6    7 1
    13    7    8 2
    14    7    9 2
    15    7   10 1
    16   10   24 1
    17   10   25 1
    18   11   26 1
    19   11   27 1
    20   12   13 1
    21   12   28 1
    22   13   18 ar
    23   13   14 ar
    24   14   15 ar
    25   14   29 1
    26   15   16 ar
    27   15   30 1
    28   16   17 ar
    29   16   20 1
    30   17   18 ar
    31   17   31 1
    32   18   19 1
@<TRIPOS>MOLECULE
ZINC40705026
   43    44     0     0     0
SMALL
USER_CHARGES

@<TRIPOS>ATOM
      1 C1         -0.9361    1.1269   -0.0058 C.3       1 <0>        -0.1144
      2 C2         -0.1816   -0.1775    0.0162 C.ar      1 <0>        -0.1249
      3 C3          0.0666   -0.8524   -1.1631 C.ar      1 <0>        -0.0851
      4 C4          0.7591   -2.0488   -1.1444 C.ar      1 <0>        -0.1338
      5 C5          1.2056   -2.5747    0.0557 C.ar      1 <0>        -0.0163
      6 C6          0.9605   -1.9042    1.2389 C.ar      1 <0>        -0.1145
      7 C7          0.2698   -0.6990    1.2219 C.ar      1 <0>         0.1836
      8 N1          0.0251   -0.0153    2.4159 N.pl3     1 <0>        -0.6505
      9 C8         -0.0590   -0.7164    3.6138 C.ar      1 <0>         0.3860
     10 C9         -0.1683   -0.0353    4.8276 C.ar      1 <0>         0.0038
     11 C10        -0.2500   -0.7878    6.0006 C.ar      1 <0>         0.4170
     12 N2         -0.2208   -2.1158    5.9179 N.ar      1 <0>        -0.5519
     13 C11        -0.1165   -2.7196    4.7514 C.ar      1 <0>         0.3256
     14 N3         -0.0420   -2.0472    3.6207 N.ar      1 <0>        -0.5610
     15 N4         -0.3597   -0.1599    7.2356 N.pl3     1 <0>        -0.5645
     16 N5         -0.4389   -0.9065    8.3768 N.3       1 <0>        -0.4202
     17 C12        -0.5485   -0.0460    9.5623 C.3       1 <0>         0.0846
     18 C13        -1.8075    0.8164    9.4519 C.3       1 <0>        -0.1377
     19 C14        -0.6349   -0.9161   10.8178 C.3       1 <0>        -0.1370
     20 C15         0.6826    0.8580    9.6519 C.3       1 <0>        -0.1828
     21 N6         -0.1950    1.3681    4.8675 N.pl3     1 <0>        -0.8772
     22 Cl1         2.0738   -4.0779    0.0744 Cl        1 <0>        -0.0688
     23 H1         -0.2329    1.9515   -0.1219 H         1 <0>         0.0711
     24 H2         -1.6372    1.1270   -0.8405 H         1 <0>         0.0740
     25 H3         -1.4841    1.2455    0.9289 H         1 <0>         0.0616
     26 H4         -0.2811   -0.4451   -2.1010 H         1 <0>         0.1334
     27 H5          0.9517   -2.5744   -2.0680 H         1 <0>         0.1319
     28 H6          1.3086   -2.3148    2.1752 H         1 <0>         0.1573
     29 H7         -0.0861    0.9483    2.4090 H         1 <0>         0.4141
     30 H8         -0.0953   -3.7990    4.7208 H         1 <0>         0.1976
     31 H9         -0.3800    0.8086    7.2872 H         1 <0>         0.4040
     32 H10         0.3492   -1.5316    8.4553 H         1 <0>         0.3417
     33 H11        -2.6846    0.1724    9.3880 H         1 <0>         0.0701
     34 H12        -1.8889    1.4549   10.3315 H         1 <0>         0.0653
     35 H13        -1.7460    1.4363    8.5574 H         1 <0>         0.0488
     36 H14         0.2620   -1.5305   10.8965 H         1 <0>         0.0594
     37 H15        -0.7162   -0.2776   11.6975 H         1 <0>         0.0691
     38 H16        -1.5120   -1.5601   10.7539 H         1 <0>         0.0711
     39 H17         0.7441    1.4779    8.7575 H         1 <0>         0.0509
     40 H18         0.6013    1.4965   10.5316 H         1 <0>         0.0704
     41 H19         1.5795    0.2436    9.7306 H         1 <0>         0.0606
     42 H20        -0.1370    1.8778    4.0442 H         1 <0>         0.3945
     43 H21        -0.2713    1.8277    5.7182 H         1 <0>         0.3934
@<TRIPOS>BOND
     1    1    2 1
     2    1   23 1
     3    1   24 1
     4    1   25 1
     5    2    7 ar
     6    2    3 ar
     7    3    4 ar
     8    3   26 1
     9    4    5 ar
    10    4   27 1
    11    5    6 ar
    12    5   22 1
    13    6    7 ar
    14    6   28 1
    15    7    8 1
    16    8    9 1
    17    8   29 1
    18    9   14 ar
    19    9   10 ar
    20   10   11 ar
    21   10   21 1
    22   11   12 ar
    23   11   15 1
    24   12   13 ar
    25   13   14 ar
    26   13   30 1
    27   15   16 1
    28   15   31 1
    29   16   17 1
    30   16   32 1
    31   17   18 1
    32   17   19 1
    33   17   20 1
    34   18   33 1
    35   18   34 1
    36   18   35 1
    37   19   36 1
    38   19   37 1
    39   19   38 1
    40   20   39 1
    41   20   40 1
    42   20   41 1
    43   21   42 1
    44   21   43 1
@<TRIPOS>MOLECULE
ZINC39277099
   37    39     0     0     0
SMALL
USER_CHARGES

@<TRIPOS>ATOM
      1 C1         -0.0167    1.3768    0.0096 C.ar      1 <0>        -0.1096
      2 C2          1.1692    2.0911    0.0021 C.ar      1 <0>        -0.1079
      3 C3          2.3811    1.4289   -0.0130 C.ar      1 <0>        -0.1040
      4 C4          2.4100    0.0426   -0.0206 C.ar      1 <0>         0.0911
      5 C5          1.2139   -0.6778   -0.0131 C.ar      1 <0>         0.0873
      6 C6          0.0021   -0.0041    0.0020 C.ar      1 <0>        -0.1048
      7 N1          1.5570   -2.0277   -0.0228 N.am      1 <0>        -0.6442
      8 H1          0.9345   -2.7717   -0.0209 H         1 <0>         0.4350
      9 C7          2.8999   -2.1240   -0.0357 C.2       1 <0>         0.6813
     10 O1          3.5277   -3.1663   -0.0469 O.2       1 <0>        -0.5513
     11 N2          3.4427   -0.8919   -0.0347 N.am      1 <0>        -0.5365
     12 C8          4.8754   -0.5862   -0.0465 C.3       1 <0>         0.1396
     13 C9          5.3875   -0.4868    1.3919 C.3       1 <0>        -0.1226
     14 C10         6.8838   -0.1676    1.3796 C.3       1 <0>        -0.0808
     15 S1          7.4909   -0.0498    3.0849 S.3       1 <0>        -0.1480
     16 C11         9.2552    0.3278    2.8975 C.3       1 <0>         0.1081
     17 H2          9.7406    0.4374    3.8673 H         1 <0>         0.1159
     18 N3          9.9467   -0.6966    2.0530 N.3       1 <0>        -0.4704
     19 N4         11.1758   -0.1396    1.5004 N.3       1 <0>        -0.5025
     20 C12        10.9441    1.1851    0.8600 C.3       1 <0>         0.3175
     21 H3         11.8139    1.8322    0.9735 H         1 <0>         0.0927
     22 S2          9.5168    1.8182    1.8408 S.3       1 <0>        -0.2603
     23 N5         10.5861    1.0310   -0.5563 N.3       1 <0>        -0.8146
     24 H4         -0.9604    1.9017    0.0259 H         1 <0>         0.1340
     25 H5          1.1466    3.1709    0.0077 H         1 <0>         0.1339
     26 H6          3.3041    1.9895   -0.0191 H         1 <0>         0.1307
     27 H7         -0.9251   -0.5579    0.0079 H         1 <0>         0.1314
     28 H8          5.4116   -1.3783   -0.5691 H         1 <0>         0.0991
     29 H9          5.0403    0.3625   -0.5572 H         1 <0>         0.0945
     30 H10         4.8513    0.3053    1.9145 H         1 <0>         0.0768
     31 H11         5.2225   -1.4355    1.9027 H         1 <0>         0.0788
     32 H12         7.4200   -0.9597    0.8570 H         1 <0>         0.0994
     33 H13         7.0487    0.7811    0.8688 H         1 <0>         0.0996
     34 H14        10.1355   -1.5343    2.5828 H         1 <0>         0.3631
     35 H15        11.8947   -0.0795    2.2058 H         1 <0>         0.3357
     36 H16        10.4293    1.9288   -0.9894 H         1 <0>         0.3564
     37 H17        11.2920    0.5084   -1.0529 H         1 <0>         0.3557
@<TRIPOS>BOND
     1    1    6 ar
     2    1    2 ar
     3    1   24 1
     4    2    3 ar
     5    2   25 1
     6    3    4 ar
     7    3   26 1
     8    4   11 1
     9    4    5 ar
    10    5    6 ar
    11    5    7 1
    12    6   27 1
    13    7    8 1
    14    7    9 am
    15    9   10 2
    16    9   11 am
    17   11   12 1
    18   12   13 1
    19   12   28 1
    20   12   29 1
    21   13   14 1
    22   13   30 1
    23   13   31 1
    24   14   15 1
    25   14   32 1
    26   14   33 1
    27   15   16 1
    28   16   17 1
    29   16   22 1
    30   16   18 1
    31   18   19 1
    32   18   34 1
    33   19   20 1
    34   19   35 1
    35   20   21 1
    36   20   22 1
    37   20   23 1
    38   23   36 1
    39   23   37 1
@<TRIPOS>MOLECULE
ZINC66238917
   36    37     0     0     0
SMALL
USER_CHARGES

@<TRIPOS>ATOM
      1 C1         -0.0167    1.3830    0.0096 C.ar      1 <0>        -0.1375
      2 C2          1.1706    2.0890    0.0021 C.ar      1 <0>        -0.0688
      3 C3          2.3781    1.4136   -0.0135 C.ar      1 <0>        -0.0737
      4 C4          2.3989    0.0301   -0.0211 C.ar      1 <0>        -0.0689
      5 C5          1.2137   -0.6795   -0.0136 C.ar      1 <0>        -0.1996
      6 C6          0.0021   -0.0041    0.0020 C.ar      1 <0>         0.1357
      7 O1         -1.1651   -0.7005    0.0099 O.3       1 <0>        -0.2980
      8 C7         -1.0700   -2.1263    0.0013 C.3       1 <0>         0.0326
      9 C8         -2.4752   -2.7313    0.0120 C.3       1 <0>         0.1270
     10 H1         -3.0336   -2.3381    0.8615 H         1 <0>         0.1219
     11 C9         -2.3742   -4.2535    0.1285 C.3       1 <0>        -0.1490
     12 S1         -4.0403   -4.9709    0.1412 S.3       1 <0>         0.0440
     13 C10        -3.7570   -6.7045    0.2781 C.ar      1 <0>         0.3743
     14 N1         -2.5114   -7.1513    0.3478 N.ar      1 <0>        -0.6205
     15 C11        -2.2595   -8.4540    0.4523 C.ar      1 <0>         0.4763
     16 C12        -3.3247   -9.3493    0.4879 C.ar      1 <0>        -0.3711
     17 C13        -4.6189   -8.8428    0.4124 C.ar      1 <0>         0.4779
     18 N2         -4.7951   -7.5272    0.3142 N.ar      1 <0>        -0.5902
     19 N3         -5.7102   -9.6970    0.4438 N.pl3     1 <0>        -0.8346
     20 N4         -0.9536   -8.9132    0.5242 N.pl3     1 <0>        -0.8368
     21 O2         -3.1500   -2.3902   -1.2006 O.3       1 <0>        -0.5397
     22 Cl1         3.8689    2.3031   -0.0241 Cl        1 <0>        -0.0691
     23 H2         -0.9590    1.9105    0.0260 H         1 <0>         0.1426
     24 H3          1.1564    3.1689    0.0080 H         1 <0>         0.1417
     25 H4          3.3424   -0.4953   -0.0333 H         1 <0>         0.1363
     26 H5          1.2303   -1.7593   -0.0203 H         1 <0>         0.1360
     27 H6         -0.5419   -2.4498   -0.8957 H         1 <0>         0.0720
     28 H7         -0.5243   -2.4593    0.8841 H         1 <0>         0.0775
     29 H8         -1.8158   -4.6467   -0.7210 H         1 <0>         0.1000
     30 H9         -1.8595   -4.5137    1.0535 H         1 <0>         0.1071
     31 H10        -3.1510  -10.4119    0.5718 H         1 <0>         0.1367
     32 H11        -5.5746  -10.6546    0.5188 H         1 <0>         0.4122
     33 H12        -6.6095   -9.3372    0.3907 H         1 <0>         0.4091
     34 H13        -0.2160   -8.2837    0.4985 H         1 <0>         0.4064
     35 H14        -0.7773   -9.8640    0.6002 H         1 <0>         0.4120
     36 H15        -2.7082   -2.7088   -1.9996 H         1 <0>         0.3783
@<TRIPOS>BOND
     1    1    6 ar
     2    1    2 ar
     3    1   23 1
     4    2    3 ar
     5    2   24 1
     6    3    4 ar
     7    3   22 1
     8    4    5 ar
     9    4   25 1
    10    5    6 ar
    11    5   26 1
    12    6    7 1
    13    7    8 1
    14    8    9 1
    15    8   27 1
    16    8   28 1
    17    9   10 1
    18    9   11 1
    19    9   21 1
    20   11   12 1
    21   11   29 1
    22   11   30 1
    23   12   13 1
    24   13   18 ar
    25   13   14 ar
    26   14   15 ar
    27   15   16 ar
    28   15   20 1
    29   16   17 ar
    30   16   31 1
    31   17   18 ar
    32   17   19 1
    33   19   32 1
    34   19   33 1
    35   20   34 1
    36   20   35 1
    37   21   36 1
@<TRIPOS>MOLECULE
ZINC09424336
   46    48     0     0     0
SMALL
USER_CHARGES

@<TRIPOS>ATOM
      1 C1          0.0020    1.4716    0.0348 C.3       1 <0>        -0.1196
      2 C2         -0.7593    1.5162   -1.2651 C.2       1 <0>         0.2831
      3 N1         -0.0829    1.5449   -2.4526 N.pl3     1 <0>        -0.5019
      4 N2         -0.7905    1.5864   -3.6610 N.am      1 <0>        -0.5285
      5 C3         -0.1236    1.6147   -4.8318 C.2       1 <0>         0.5615
      6 O1          1.0921    1.6043   -4.8394 O.2       1 <0>        -0.5104
      7 C4         -0.8691    1.6584   -6.1048 C.ar      1 <0>        -0.1516
      8 C5         -2.2545    1.6758   -6.0910 C.ar      1 <0>        -0.0439
      9 C6         -2.9571    1.7178   -7.3034 C.ar      1 <0>        -0.0713
     10 C7         -4.3638    1.7371   -7.3265 C.ar      1 <0>        -0.0951
     11 C8         -5.0174    1.7783   -8.5191 C.ar      1 <0>        -0.1169
     12 C9         -4.3140    1.8013   -9.7224 C.ar      1 <0>        -0.0961
     13 C10        -2.9533    1.7833   -9.7399 C.ar      1 <0>        -0.1141
     14 C11        -2.2411    1.7418   -8.5284 C.ar      1 <0>        -0.0134
     15 C12        -0.8367    1.7233   -8.5152 C.ar      1 <0>        -0.1385
     16 C13        -0.1665    1.6879   -7.3279 C.ar      1 <0>         0.1640
     17 O2          1.1908    1.6755   -7.3230 O.3       1 <0>        -0.4774
     18 C14        -2.1083    1.5277   -1.2567 C.2       1 <0>        -0.3977
     19 C15        -2.8096    1.3225   -0.0461 C.2       1 <0>         0.5775
     20 O3         -2.2021    1.0250    0.9666 O.2       1 <0>        -0.5405
     21 N3         -4.1503    1.4562   -0.0130 N.am      1 <0>        -0.6723
     22 C16        -4.8599    1.1058    1.1405 C.ar      1 <0>         0.1903
     23 C17        -4.2775    0.2778    2.0912 C.ar      1 <0>        -0.1386
     24 C18        -4.9804   -0.0659    3.2292 C.ar      1 <0>        -0.0807
     25 C19        -6.2634    0.4129    3.4228 C.ar      1 <0>        -0.1416
     26 C20        -6.8469    1.2371    2.4784 C.ar      1 <0>        -0.0679
     27 C21        -6.1469    1.5900    1.3403 C.ar      1 <0>        -0.1372
     28 Br1        -6.9425    2.7235    0.0527 Br        1 <0>        -0.0511
     29 H1          0.0798    0.4390    0.3750 H         1 <0>         0.1002
     30 H2          1.0010    1.8811   -0.1150 H         1 <0>         0.0664
     31 H3         -0.5243    2.0625    0.7844 H         1 <0>         0.1142
     32 H4         -1.7605    1.5947   -3.6550 H         1 <0>         0.4248
     33 H5         -2.7892    1.6569   -5.1529 H         1 <0>         0.1336
     34 H6         -4.9220    1.7190   -6.4021 H         1 <0>         0.1325
     35 H7         -6.0972    1.7930   -8.5337 H         1 <0>         0.1291
     36 H8         -4.8572    1.8335  -10.6553 H         1 <0>         0.1292
     37 H9         -2.4228    1.8008  -10.6804 H         1 <0>         0.1333
     38 H10        -0.2876    1.7415   -9.4450 H         1 <0>         0.1440
     39 H11         1.5761    0.7889   -7.3475 H         1 <0>         0.3965
     40 H12        -2.6526    1.6937   -2.1747 H         1 <0>         0.1140
     41 H13         0.8871    1.5366   -2.4586 H         1 <0>         0.4400
     42 H14        -4.6232    1.7954   -0.7891 H         1 <0>         0.4102
     43 H15        -3.2759   -0.0972    1.9407 H         1 <0>         0.1653
     44 H16        -4.5278   -0.7098    3.9688 H         1 <0>         0.1315
     45 H17        -6.8108    0.1421    4.3135 H         1 <0>         0.1309
     46 H18        -7.8491    1.6090    2.6324 H         1 <0>         0.1342
@<TRIPOS>BOND
     1    1   29 1
     2    1   30 1
     3    1   31 1
     4    1    2 1
     5    2   18 2
     6    2    3 1
     7    3    4 1
     8    3   41 1
     9    4    5 am
    10    4   32 1
    11    5    6 2
    12    5    7 1
    13    7   16 ar
    14    7    8 ar
    15    8    9 ar
    16    8   33 1
    17    9   14 ar
    18    9   10 ar
    19   10   11 ar
    20   10   34 1
    21   11   12 ar
    22   11   35 1
    23   12   13 ar
    24   12   36 1
    25   13   14 ar
    26   13   37 1
    27   14   15 ar
    28   15   16 ar
    29   15   38 1
    30   16   17 1
    31   17   39 1
    32   18   19 1
    33   18   40 1
    34   19   20 2
    35   19   21 am
    36   21   22 1
    37   21   42 1
    38   22   27 ar
    39   22   23 ar
    40   23   24 ar
    41   23   43 1
    42   24   25 ar
    43   24   44 1
    44   25   26 ar
    45   25   45 1
    46   26   27 ar
    47   26   46 1
    48   27   28 1
@<TRIPOS>MOLECULE
ZINC40347164
   29    30     0     0     0
SMALL
USER_CHARGES

@<TRIPOS>ATOM
      1 C1          0.0580    1.3643    0.4443 C.ar      1 <0>        -0.1668
      2 C2          1.2675    2.0312    0.3887 C.ar      1 <0>         0.0067
      3 C3          2.4001    1.3760   -0.0604 C.ar      1 <0>        -0.1379
      4 C4          2.3261    0.0517   -0.4548 C.ar      1 <0>         0.0427
      5 C5          1.1198   -0.6202   -0.4011 C.ar      1 <0>        -0.7247
      6 C6         -0.0193    0.0352    0.0491 C.ar      1 <0>         0.3220
      7 N1         -1.2400   -0.6414    0.1045 N.pl3     1 <0>        -0.8592
      8 S1          1.0264   -2.3064   -0.9040 S.o2      1 <0>         2.6853
      9 O1         -0.3379   -2.5652   -1.2056 O.2       1 <0>        -0.9555
     10 O2          2.0670   -2.5060   -1.8509 O.2       1 <0>        -0.9295
     11 N2          1.4034   -3.2326    0.4159 N.pl3     1 <0>        -1.1101
     12 C7          0.5275   -3.2254    1.5902 C.3       1 <0>         0.1955
     13 C8          0.8696   -4.3931    2.4793 C.2       1 <0>        -0.2578
     14 C9          0.3301   -5.6321    2.4091 C.2       1 <0>         0.0861
     15 N3          0.8998   -6.3840    3.3740 N.pl3     1 <0>        -0.4728
     16 H1          0.7066   -7.3163    3.5597 H         1 <0>         0.4432
     17 N4          1.8199   -5.5806    4.0599 N.2       1 <0>        -0.2904
     18 C10         1.8053   -4.3894    3.5189 C.2       1 <0>         0.0674
     19 Br1         3.8770   -0.8392   -1.0686 Br        1 <0>         0.0091
     20 Br2         1.3739    3.8409    0.9266 Br        1 <0>        -0.0207
     21 H2         -0.8250    1.8751    0.7988 H         1 <0>         0.1485
     22 H3          3.3439    1.8993   -0.1036 H         1 <0>         0.1496
     23 H4         -2.0721   -0.1450    0.0599 H         1 <0>         0.4106
     24 H5         -1.2556   -1.6077    0.1877 H         1 <0>         0.4118
     25 H6          2.2042   -3.7800    0.4116 H         1 <0>         0.4236
     26 H7          0.6669   -2.2957    2.1417 H         1 <0>         0.0743
     27 H8         -0.5111   -3.3052    1.2692 H         1 <0>         0.0811
     28 H9         -0.4218   -5.9603    1.7067 H         1 <0>         0.1816
     29 H10         2.4091   -3.5477    3.8244 H         1 <0>         0.1863
@<TRIPOS>BOND
     1    1    6 ar
     2    1    2 ar
     3    1   21 1
     4    2    3 ar
     5    2   20 1
     6    3    4 ar
     7    3   22 1
     8    4    5 ar
     9    4   19 1
    10    5    6 ar
    11    5    8 1
    12    6    7 1
    13    7   23 1
    14    7   24 1
    15    8    9 2
    16    8   10 2
    17    8   11 1
    18   11   12 1
    19   11   25 1
    20   12   13 1
    21   12   26 1
    22   12   27 1
    23   13   18 1
    24   13   14 2
    25   14   15 1
    26   14   28 1
    27   15   16 1
    28   15   17 1
    29   17   18 2
    30   18   29 1
@<TRIPOS>MOLECULE
ZINC40702425
   40    42     0     0     0
SMALL
USER_CHARGES

@<TRIPOS>ATOM
      1 C1          1.5445    1.0768   -0.6078 C.3       1 <0>         0.0272
      2 O1          1.0236   -0.2376   -0.4003 O.3       1 <0>        -0.3180
      3 C2          1.0972   -0.7389    0.8620 C.ar      1 <0>         0.1004
      4 C3          1.6530    0.0200    1.8787 C.ar      1 <0>        -0.1781
      5 C4          1.7278   -0.4906    3.1615 C.ar      1 <0>        -0.0888
      6 C5          1.2485   -1.7597    3.4340 C.ar      1 <0>        -0.0507
      7 C6          0.6918   -2.5233    2.4242 C.ar      1 <0>        -0.0736
      8 C7          0.6085   -2.0145    1.1361 C.ar      1 <0>         0.1471
      9 N1          0.0402   -2.7830    0.1133 N.pl3     1 <0>        -0.6431
     10 C8          0.2080   -4.1629    0.1057 C.ar      1 <0>         0.3957
     11 C9         -0.2698   -4.9295   -0.9594 C.ar      1 <0>         0.0237
     12 C10        -0.0742   -6.3110   -0.9169 C.ar      1 <0>         0.3876
     13 N2          0.5554   -6.8411    0.1294 N.ar      1 <0>        -0.5521
     14 C11         0.9908   -6.0816    1.1140 C.ar      1 <0>         0.3223
     15 N3          0.8314   -4.7735    1.1107 N.ar      1 <0>        -0.5552
     16 N4         -0.5305   -7.1208   -1.9510 N.pl3     1 <0>        -0.6490
     17 C12        -0.4445   -8.5116   -1.8396 C.ar      1 <0>         0.2000
     18 C13        -0.4030   -9.1083   -0.5859 C.ar      1 <0>        -0.1250
     19 C14        -0.3185  -10.4826   -0.4793 C.ar      1 <0>        -0.0794
     20 C15        -0.2753  -11.2652   -1.6188 C.ar      1 <0>        -0.1413
     21 C16        -0.3159  -10.6751   -2.8686 C.ar      1 <0>        -0.0672
     22 C17        -0.4062   -9.3009   -2.9828 C.ar      1 <0>        -0.1383
     23 Br1        -0.4695   -8.4950   -4.6923 Br        1 <0>        -0.0533
     24 N5         -0.9289   -4.3274   -2.0427 N.pl3     1 <0>        -0.8730
     25 Cl1         1.3466   -2.3949    5.0466 Cl        1 <0>        -0.0647
     26 H1          2.6027    1.0936   -0.3472 H         1 <0>         0.0582
     27 H2          1.4237    1.3544   -1.6549 H         1 <0>         0.1022
     28 H3          1.0043    1.7850    0.0205 H         1 <0>         0.0582
     29 H4          2.0283    1.0107    1.6693 H         1 <0>         0.1403
     30 H5          2.1618    0.1026    3.9528 H         1 <0>         0.1366
     31 H6          0.3186   -3.5138    2.6390 H         1 <0>         0.1636
     32 H7         -0.4706   -2.3527   -0.5901 H         1 <0>         0.4188
     33 H8          1.4976   -6.5450    1.9475 H         1 <0>         0.2018
     34 H9         -0.9084   -6.7207   -2.7497 H         1 <0>         0.4154
     35 H10        -0.4364   -8.4981    0.3046 H         1 <0>         0.1599
     36 H11        -0.2859  -10.9469    0.4953 H         1 <0>         0.1319
     37 H12        -0.2092  -12.3397   -1.5322 H         1 <0>         0.1308
     38 H13        -0.2812  -11.2891   -3.7564 H         1 <0>         0.1338
     39 H14        -1.0579   -3.3661   -2.0585 H         1 <0>         0.3986
     40 H15        -1.2554   -4.8726   -2.7756 H         1 <0>         0.3969
@<TRIPOS>BOND
     1    1    2 1
     2    1   26 1
     3    1   27 1
     4    1   28 1
     5    2    3 1
     6    3    8 ar
     7    3    4 ar
     8    4    5 ar
     9    4   29 1
    10    5    6 ar
    11    5   30 1
    12    6    7 ar
    13    6   25 1
    14    7    8 ar
    15    7   31 1
    16    8    9 1
    17    9   10 1
    18    9   32 1
    19   10   15 ar
    20   10   11 ar
    21   11   12 ar
    22   11   24 1
    23   12   13 ar
    24   12   16 1
    25   13   14 ar
    26   14   15 ar
    27   14   33 1
    28   16   17 1
    29   16   34 1
    30   17   22 ar
    31   17   18 ar
    32   18   19 ar
    33   18   35 1
    34   19   20 ar
    35   19   36 1
    36   20   21 ar
    37   20   37 1
    38   21   22 ar
    39   21   38 1
    40   22   23 1
    41   24   39 1
    42   24   40 1
@<TRIPOS>MOLECULE
ZINC40782288
   41    44     0     0     0
SMALL
USER_CHARGES

@<TRIPOS>ATOM
      1 C1          0.1725    1.3031    1.4449 C.ar      1 <0>        -0.0696
      2 C2          1.1564    2.0951    0.9349 C.ar      1 <0>        -0.1238
      3 C3          2.2049    1.5257    0.1930 C.ar      1 <0>         0.1468
      4 C4          2.2232    0.1244   -0.0153 C.ar      1 <0>        -0.1232
      5 C5          3.2733   -0.4416   -0.7577 C.ar      1 <0>        -0.0614
      6 C6          4.2383    0.3920   -1.2500 C.ar      1 <0>        -0.1769
      7 C7          4.1619    1.7613   -1.0094 C.ar      1 <0>         0.1329
      8 N1          3.1801    2.2860   -0.3164 N.ar      1 <0>        -0.4711
      9 C8          1.1917   -0.6730    0.5234 C.ar      1 <0>         0.1814
     10 C9          0.1809   -0.0732    1.2463 C.ar      1 <0>        -0.1390
     11 N2          1.1938   -2.0519    0.3279 N.pl3     1 <0>        -0.6441
     12 C10         0.0091   -2.7714    0.4376 C.ar      1 <0>         0.3889
     13 C11         0.0167   -4.1657    0.3621 C.ar      1 <0>         0.0216
     14 C12        -1.2010   -4.8387    0.4783 C.ar      1 <0>         0.3917
     15 N3         -2.3144   -4.1309    0.6553 N.ar      1 <0>        -0.5507
     16 C13        -2.2775   -2.8155    0.7209 C.ar      1 <0>         0.3223
     17 N4         -1.1492   -2.1421    0.6216 N.ar      1 <0>        -0.5488
     18 N5         -1.2501   -6.2265    0.4099 N.pl3     1 <0>        -0.6541
     19 C14        -2.4840   -6.8834    0.4144 C.ar      1 <0>         0.1824
     20 C15        -2.6082   -8.1268    1.0212 C.ar      1 <0>        -0.1499
     21 C16        -3.8285   -8.7733    1.0240 C.ar      1 <0>        -0.0675
     22 C17        -4.9266   -8.1840    0.4229 C.ar      1 <0>        -0.1118
     23 C18        -4.8059   -6.9456   -0.1823 C.ar      1 <0>        -0.0680
     24 C19        -3.5897   -6.2915   -0.1829 C.ar      1 <0>        -0.1108
     25 Br1        -6.5955   -9.0732    0.4279 Br        1 <0>        -0.0525
     26 N6          1.2154   -4.8711    0.1742 N.pl3     1 <0>        -0.8737
     27 H1         -0.6259    1.7516    2.0174 H         1 <0>         0.1334
     28 H2          1.1304    3.1620    1.1008 H         1 <0>         0.1349
     29 H3          3.3169   -1.5062   -0.9343 H         1 <0>         0.1270
     30 H4          5.0593   -0.0111   -1.8244 H         1 <0>         0.1380
     31 H5          4.9312    2.4082   -1.4043 H         1 <0>         0.1606
     32 H6         -0.6113   -0.6783    1.6618 H         1 <0>         0.1633
     33 H7          2.0218   -2.5103    0.1153 H         1 <0>         0.4124
     34 H8         -3.1999   -2.2727    0.8652 H         1 <0>         0.2029
     35 H9         -0.4280   -6.7389    0.3589 H         1 <0>         0.4154
     36 H10        -1.7513   -8.5875    1.4899 H         1 <0>         0.1313
     37 H11        -3.9257   -9.7400    1.4956 H         1 <0>         0.1352
     38 H12        -5.6647   -6.4882   -0.6511 H         1 <0>         0.1352
     39 H13        -3.4972   -5.3227   -0.6513 H         1 <0>         0.1448
     40 H14         2.0540   -4.3901    0.0948 H         1 <0>         0.3965
     41 H15         1.2053   -5.8398    0.1237 H         1 <0>         0.3981
@<TRIPOS>BOND
     1    1   10 ar
     2    1    2 ar
     3    1   27 1
     4    2    3 ar
     5    2   28 1
     6    3    8 ar
     7    3    4 ar
     8    4    5 ar
     9    4    9 ar
    10    5    6 ar
    11    5   29 1
    12    6    7 ar
    13    6   30 1
    14    7    8 ar
    15    7   31 1
    16    9   10 ar
    17    9   11 1
    18   10   32 1
    19   11   12 1
    20   11   33 1
    21   12   17 ar
    22   12   13 ar
    23   13   14 ar
    24   13   26 1
    25   14   15 ar
    26   14   18 1
    27   15   16 ar
    28   16   17 ar
    29   16   34 1
    30   18   19 1
    31   18   35 1
    32   19   24 ar
    33   19   20 ar
    34   20   21 ar
    35   20   36 1
    36   21   22 ar
    37   21   37 1
    38   22   23 ar
    39   22   25 1
    40   23   24 ar
    41   23   38 1
    42   24   39 1
    43   26   40 1
    44   26   41 1
@<TRIPOS>MOLECULE
ZINC63427036
   58    63     0     0     0
SMALL
NO_CHARGES

@<TRIPOS>ATOM
      1 C1         -0.0167    1.3781    0.0096 C.ar      1 <0>        -0.1123
      2 C2          1.1709    2.0855    0.0021 C.ar      1 <0>        -0.1252
      3 C3          2.3773    1.4107   -0.0130 C.ar      1 <0>        -0.0858
      4 C4          2.3960    0.0285   -0.0201 C.ar      1 <0>        -0.0926
      5 C5          1.2084   -0.6789   -0.0117 C.ar      1 <0>        -0.0918
      6 C6          0.0021   -0.0041    0.0020 C.ar      1 <0>        -0.1253
      7 C7          3.7112   -0.7071   -0.0376 C.3       1 <0>         0.2365
      8 H1          4.0981   -0.8061    0.9766 H         1 <0>         0.1089
      9 N1          4.6780    0.0082   -0.8786 N.2       1 <0>        -0.4491
     10 C8          5.3098   -0.8261   -1.6155 C.2       1 <0>         0.1471
     11 C9          4.7955   -2.2171   -1.3178 C.3       1 <0>         0.0879
     12 O1          3.5427   -2.0083   -0.6324 O.3       1 <0>        -0.3474
     13 C10         4.5694   -2.9912   -2.6180 C.3       1 <0>        -0.0597
     14 S1          3.9536   -4.6534   -2.2328 S.3       1 <0>        -0.2924
     15 C11         3.7401   -5.4299   -3.8583 C.3       1 <0>         0.4190
     16 N2          5.0083   -5.4077   -4.5979 N.pl3     1 <0>        -0.6823
     17 C12         4.8139   -4.7201   -5.6860 C.ar      1 <0>         0.0778
     18 C13         5.6910   -4.3544   -6.8068 C.ar      1 <0>        -0.1160
     19 C14         5.2003   -3.6148   -7.8214 C.ar      1 <0>        -0.1273
     20 C15         3.8669   -3.1696   -7.8593 C.ar      1 <0>        -0.1280
     21 C16         2.9794   -3.4491   -6.8838 C.ar      1 <0>        -0.1232
     22 C17         3.4026   -4.2485   -5.7259 C.ar      1 <0>         0.0798
     23 N3          2.7792   -4.6628   -4.6609 N.pl3     1 <0>        -0.6809
     24 C18         6.3852   -0.4805   -2.6130 C.3       1 <0>        -0.0158
     25 S2          6.6553    1.3133   -2.6139 S.3       1 <0>        -0.2515
     26 C19         7.9603    1.5601   -3.8494 C.3       1 <0>         0.4080
     27 N4          9.1447    0.7672   -3.4967 N.pl3     1 <0>        -0.6843
     28 C20         9.3588   -0.0695   -4.4706 C.ar      1 <0>         0.0757
     29 C21        10.3786   -1.1038   -4.6931 C.ar      1 <0>        -0.1223
     30 C22        10.3487   -1.8345   -5.8255 C.ar      1 <0>        -0.1293
     31 C23         9.3723   -1.6509   -6.8207 C.ar      1 <0>        -0.1265
     32 C24         8.3929   -0.7304   -6.7169 C.ar      1 <0>        -0.1168
     33 C25         8.3250    0.1245   -5.5238 C.ar      1 <0>         0.0813
     34 N5          7.5117    1.0737   -5.1602 N.pl3     1 <0>        -0.6825
     35 H2         -0.9591    1.9053    0.0259 H         1 <0>         0.1229
     36 H3          1.1563    3.1654    0.0076 H         1 <0>         0.1246
     37 H4          3.3051    1.9634   -0.0196 H         1 <0>         0.1306
     38 H5          1.2231   -1.7588   -0.0176 H         1 <0>         0.1277
     39 H6         -0.9258   -0.5567    0.0082 H         1 <0>         0.1238
     40 H7          7.3108   -0.9871   -2.3395 H         1 <0>         0.1088
     41 H8          3.8374   -2.4656   -3.2312 H         1 <0>         0.0895
     42 H9          5.5104   -3.0695   -3.1625 H         1 <0>         0.0970
     43 H10         3.3931   -6.4563   -3.7396 H         1 <0>         0.1200
     44 H11         6.7218   -4.6763   -6.8177 H         1 <0>         0.1198
     45 H12         5.8573   -3.3541   -8.6379 H         1 <0>         0.1153
     46 H13         3.5407   -2.5807   -8.7038 H         1 <0>         0.1144
     47 H14         1.9641   -3.0871   -6.9526 H         1 <0>         0.1176
     48 H15         6.0753   -0.8017   -3.6074 H         1 <0>         0.1086
     49 H16         5.4949   -2.7506   -0.6741 H         1 <0>         0.1053
     50 H17         8.2212    2.6166   -3.9117 H         1 <0>         0.1210
     51 H18        11.1468   -1.2776   -3.9541 H         1 <0>         0.1180
     52 H19        11.1051   -2.5909   -5.9745 H         1 <0>         0.1144
     53 H20         9.4087   -2.2720   -7.7035 H         1 <0>         0.1151
     54 H21         7.6631   -0.6220   -7.5056 H         1 <0>         0.1197
     55 H22         5.8389   -5.8281   -4.3255 H         1 <0>         0.4330
     56 H23         9.6714    0.8517   -2.6865 H         1 <0>         0.4330
     57 H24         1.8499   -4.4956   -4.4385 H         1 <0>         0.4331
     58 H25         6.7490    1.3997   -5.6630 H         1 <0>         0.4335
@<TRIPOS>BOND
     1    1    6 ar
     2    1    2 ar
     3    1   35 1
     4    2    3 ar
     5    2   36 1
     6    3    4 ar
     7    3   37 1
     8    4    5 ar
     9    4    7 1
    10    5    6 ar
    11    5   38 1
    12    6   39 1
    13    7    8 1
    14    7   12 1
    15    7    9 1
    16    9   10 2
    17   10   11 1
    18   10   24 1
    19   11   12 1
    20   11   13 1
    21   11   49 1
    22   13   14 1
    23   13   41 1
    24   13   42 1
    25   14   15 1
    26   15   23 1
    27   15   16 1
    28   15   43 1
    29   16   17 2
    30   16   55 1
    31   17   22 ar
    32   17   18 ar
    33   18   19 ar
    34   18   44 1
    35   19   20 ar
    36   19   45 1
    37   20   21 ar
    38   20   46 1
    39   21   22 ar
    40   21   47 1
    41   22   23 2
    42   23   57 1
    43   24   25 1
    44   24   48 1
    45   24   40 1
    46   25   26 1
    47   26   34 1
    48   26   27 1
    49   26   50 1
    50   27   28 2
    51   27   56 1
    52   28   33 ar
    53   28   29 ar
    54   29   30 ar
    55   29   51 1
    56   30   31 ar
    57   30   52 1
    58   31   32 ar
    59   31   53 1
    60   32   33 ar
    61   32   54 1
    62   33   34 2
    63   34   58 1
@<TRIPOS>MOLECULE
ZINC19354101
   46    50     0     0     0
SMALL
USER_CHARGES
4-(aminoBLAHyl)-2-nitro-phenol
@<TRIPOS>ATOM
      1 C1         -0.0177    2.0060    2.4528 C.ar      1 <0>        -0.0046
      2 C2         -0.6459    2.4637    3.5951 C.ar      1 <0>        -0.1608
      3 C3         -1.9680    2.8798    3.5387 C.ar      1 <0>         0.2818
      4 C4         -2.6561    2.8352    2.3347 C.ar      1 <0>        -0.1447
      5 C5         -2.0218    2.3821    1.1944 C.ar      1 <0>         0.0288
      6 C6         -0.7055    1.9626    1.2544 C.ar      1 <0>        -0.2051
      7 C7         -0.0178    1.4629    0.0101 C.3       1 <0>         0.4402
      8 H1         -0.5510    1.8424   -0.8740 H         1 <0>         0.1603
      9 N1          1.3888    1.9044   -0.0010 N.pl3     1 <0>        -0.7223
     10 C8          2.3334    1.1968    0.6935 C.cat     1 <0>         0.7413
     11 N2          2.2159   -0.1049    0.8885 N.pl3     1 <0>        -0.5702
     12 C9          1.0945   -0.7234    0.4472 C.2       1 <0>         0.4567
     13 N3          0.0021   -0.0041    0.0020 N.pl3     1 <0>        -0.5188
     14 C10        -0.9573   -0.9047   -0.3978 C.ar      1 <0>         0.1004
     15 C11        -2.2363   -0.7875   -0.9263 C.ar      1 <0>        -0.1215
     16 C12        -2.9632   -1.9235   -1.2270 C.ar      1 <0>         0.1221
     17 C13        -2.4227   -3.1867   -1.0055 C.ar      1 <0>         0.0768
     18 C14        -1.1537   -3.3215   -0.4820 C.ar      1 <0>        -0.0495
     19 C15        -0.4073   -2.1804   -0.1713 C.ar      1 <0>         0.0653
     20 N4          0.8395   -2.0019    0.3453 N.2       1 <0>        -0.4336
     21 O1         -3.1586   -4.2965   -1.3091 O.3       1 <0>        -0.3094
     22 C16        -3.3994   -4.5265   -2.6986 C.3       1 <0>         0.0573
     23 C17        -4.6068   -3.7349   -3.1755 C.3       1 <0>        -0.1938
     24 C18        -4.3810   -2.2331   -3.1003 C.3       1 <0>         0.0573
     25 O2         -4.2225   -1.8112   -1.7444 O.3       1 <0>        -0.3130
     26 N5          3.4242    1.8527    1.1970 N.pl3     1 <0>        -0.8129
     27 N6         -4.0667    3.2788    2.2709 N.pl3     1 <0>         0.0431
     28 O3         -4.6703    3.2395    1.2138 O.2       1 <0>        -0.0948
     29 O4         -4.6239    3.6833    3.2757 O.3       1 <0>        -0.1897
     30 O5         -2.5880    3.3309    4.6608 O.3       1 <0>        -0.4919
     31 H2          1.0117    1.6823    2.4961 H         1 <0>         0.1254
     32 H3         -0.1083    2.4972    4.5311 H         1 <0>         0.1638
     33 H4         -2.5556    2.3517    0.2560 H         1 <0>         0.1651
     34 H5         -2.6617    0.1895   -1.1022 H         1 <0>         0.1433
     35 H6         -0.7384   -4.3040   -0.3125 H         1 <0>         0.1561
     36 H7         -2.5190   -4.2149   -3.2798 H         1 <0>         0.0624
     37 H8         -3.5888   -5.5971   -2.8656 H         1 <0>         0.1158
     38 H9         -4.8249   -3.9938   -4.2221 H         1 <0>         0.1007
     39 H10        -5.4767   -3.9796   -2.5483 H         1 <0>         0.0915
     40 H11        -3.4724   -1.9704   -3.6619 H         1 <0>         0.0614
     41 H12        -5.2452   -1.7101   -3.5357 H         1 <0>         0.1158
     42 H13         4.1905    1.2964    1.7568 H         1 <0>         0.4737
     43 H14        -3.6364    3.6606    4.6151 H         1 <0>         0.4617
     44 H15         3.0176   -0.6592    1.3984 H         1 <0>         0.5022
     45 H16         3.5345    2.9361    1.0418 H         1 <0>         0.4779
     46 H17         1.6797    2.8018   -0.5668 H         1 <0>         0.4885
@<TRIPOS>BOND
     1    1    6 ar
     2    1    2 ar
     3    1   31 1
     4    2    3 ar
     5    2   32 1
     6    3    4 ar
     7    3   30 1
     8    4    5 ar
     9    4   27 1
    10    5    6 ar
    11    5   33 1
    12    6    7 1
    13    7    8 1
    14    7   13 1
    15    7    9 1
    16    9   10 2
    17    9   46 1
    18   10   11 1
    19   10   26 1
    20   11   12 1
    21   11   44 1
    22   12   20 2
    23   12   13 1
    24   13   14 1
    25   14   19 ar
    26   14   15 ar
    27   15   16 ar
    28   15   34 1
    29   16   25 1
    30   16   17 ar
    31   17   18 ar
    32   17   21 1
    33   18   19 ar
    34   18   35 1
    35   19   20 1
    36   21   22 1
    37   22   23 1
    38   22   36 1
    39   22   37 1
    40   23   24 1
    41   23   38 1
    42   23   39 1
    43   24   25 1
    44   24   40 1
    45   24   41 1
    46   26   42 1
    47   26   45 1
    48   27   28 2
    49   27   29 1
    50   30   43 1
@<TRIPOS>MOLECULE
ZINC04948747
   43    46     0     0     0
SMALL
USER_CHARGES

@<TRIPOS>ATOM
      1 C1         -0.0184    1.5028    0.0103 C.3       1 <0>        -0.1285
      2 C2          0.0021   -0.0041    0.0020 C.2       1 <0>         0.3042
      3 C3          0.0079   -0.8146   -1.1368 C.2       1 <0>        -0.2772
      4 C4          0.0283   -2.1127   -0.7256 C.2       1 <0>         0.5048
      5 N1          0.0349   -2.1092    0.6353 N.pl3     1 <0>        -0.3073
      6 N2          0.0230   -0.7744    1.0597 N.pl3     1 <0>        -0.3878
      7 C5          0.0544   -3.2393    1.4640 C.ar      1 <0>         0.0802
      8 C6         -0.7778   -4.3167    1.1910 C.ar      1 <0>        -0.1120
      9 C7         -0.7559   -5.4291    2.0093 C.ar      1 <0>        -0.0856
     10 C8          0.0937   -5.4707    3.0995 C.ar      1 <0>        -0.0814
     11 C9          0.9234   -4.3991    3.3743 C.ar      1 <0>        -0.0879
     12 C10         0.9102   -3.2862    2.5564 C.ar      1 <0>        -0.1040
     13 N3          0.0401   -3.2365   -1.5465 N.pl3     1 <0>        -0.8027
     14 C11        -0.0058   -0.3368   -2.5660 C.3       1 <0>         0.2587
     15 C12        -0.7274   -1.3286   -3.4491 C.ar      1 <0>        -0.2207
     16 C13        -2.0200   -1.8025   -3.4632 C.ar      1 <0>         0.0279
     17 C14        -2.4044   -2.7308   -4.4149 C.ar      1 <0>        -0.0745
     18 C15        -1.4877   -3.1788   -5.3485 C.ar      1 <0>         0.0047
     19 C16        -0.1919   -2.7060   -5.3363 C.ar      1 <0>        -0.1371
     20 C17         0.2026   -1.7707   -4.3813 C.ar      1 <0>         0.2029
     21 N4          1.4340   -1.1512   -4.1656 N.am      1 <0>        -0.6533
     22 C18         1.4001   -0.2999   -3.1265 C.2       1 <0>         0.5062
     23 O1          2.3223    0.3721   -2.7152 O.2       1 <0>        -0.4371
     24 N5         -3.7930   -3.2432   -4.4332 N.pl3     1 <0>         0.0317
     25 O2         -4.5930   -2.8508   -3.6161 O.2       1 <0>        -0.1490
     26 O3         -4.1271   -4.0541   -5.2653 O.3       1 <0>        -0.1376
     27 O4         -0.6145    0.9530   -2.6555 O.3       1 <0>        -0.5074
     28 H1          1.0042    1.8801    0.0026 H         1 <0>         0.1244
     29 H2         -0.5455    1.8639   -0.8728 H         1 <0>         0.1425
     30 H3         -0.5286    1.8543    0.9071 H         1 <0>         0.1032
     31 H4         -1.4418   -4.2847    0.3399 H         1 <0>         0.1379
     32 H5         -1.4033   -6.2673    1.7976 H         1 <0>         0.1518
     33 H6          0.1090   -6.3416    3.7379 H         1 <0>         0.1485
     34 H7          1.5853   -4.4341    4.2269 H         1 <0>         0.1500
     35 H8          1.5619   -2.4515    2.7687 H         1 <0>         0.1377
     36 H9          0.0339   -3.1328   -2.5109 H         1 <0>         0.4307
     37 H10         0.0545   -4.1235   -1.1541 H         1 <0>         0.4236
     38 H11        -2.7329   -1.4505   -2.7322 H         1 <0>         0.1661
     39 H12        -1.7879   -3.9032   -6.0911 H         1 <0>         0.1750
     40 H13         0.5182   -3.0609   -6.0685 H         1 <0>         0.1666
     41 H14         2.2241   -1.3165   -4.7035 H         1 <0>         0.4324
     42 H15        -0.6503    1.3095   -3.5537 H         1 <0>         0.4050
     43 H16         0.0278   -0.4722    1.9815 H         1 <0>         0.4745
@<TRIPOS>BOND
     1    1    2 1
     2    1   28 1
     3    1   29 1
     4    1   30 1
     5    2    6 2
     6    2    3 1
     7    3    4 2
     8    3   14 1
     9    4    5 1
    10    4   13 1
    11    5    6 1
    12    5    7 1
    13    6   43 1
    14    7   12 ar
    15    7    8 ar
    16    8    9 ar
    17    8   31 1
    18    9   10 ar
    19    9   32 1
    20   10   11 ar
    21   10   33 1
    22   11   12 ar
    23   11   34 1
    24   12   35 1
    25   13   36 1
    26   13   37 1
    27   14   22 1
    28   14   15 1
    29   14   27 1
    30   15   20 ar
    31   15   16 ar
    32   16   17 ar
    33   16   38 1
    34   17   18 ar
    35   17   24 1
    36   18   19 ar
    37   18   39 1
    38   19   20 ar
    39   19   40 1
    40   20   21 1
    41   21   22 am
    42   21   41 1
    43   22   23 2
    44   24   25 2
    45   24   26 1
    46   27   42 1
@<TRIPOS>MOLECULE
ZINC44463416
   52    55     0     0     0
SMALL
USER_CHARGES

@<TRIPOS>ATOM
      1 C1          1.8364    1.4133   -0.7883 C.3       1 <0>        -0.1468
      2 C2          1.4599   -0.0339   -0.6017 C.ar      1 <0>         0.0524
      3 C3          1.1168   -0.8086   -1.6886 C.ar      1 <0>        -0.2097
      4 C4          0.7671   -2.1446   -1.5172 C.ar      1 <0>         0.1682
      5 C5          0.7278   -2.7047   -0.2462 C.ar      1 <0>        -0.1671
      6 C6          1.0448   -1.9286    0.8509 C.ar      1 <0>         0.1884
      7 C7          1.4612   -0.6025    0.6718 C.ar      1 <0>        -0.2335
      8 C8          1.9465    0.1419    1.8449 C.2       1 <0>         0.5456
      9 O1          1.3917    1.1625    2.2021 O.2       1 <0>        -0.3920
     10 O2          3.0118   -0.3257    2.5136 O.3       1 <0>        -0.2899
     11 C9          2.9990   -1.5479    3.1118 C.ar      1 <0>         0.1522
     12 C10         4.0700   -1.7934    3.9760 C.ar      1 <0>        -0.0986
     13 C11         4.1832   -2.9910    4.6536 C.ar      1 <0>         0.2266
     14 C12         3.2056   -3.9779    4.4711 C.ar      1 <0>        -0.2017
     15 C13         2.1384   -3.7265    3.6051 C.ar      1 <0>        -0.0725
     16 C14         2.0310   -2.5223    2.9262 C.ar      1 <0>         0.0739
     17 O3          0.9464   -2.3953    2.1119 O.3       1 <0>        -0.2552
     18 C15         1.2770   -4.9640    3.6290 C.3       1 <0>         0.3135
     19 H1          0.2780   -4.7167    3.9881 H         1 <0>         0.1330
     20 O4          1.9072   -5.8825    4.5268 O.3       1 <0>        -0.3305
     21 C16         3.0262   -5.3268    5.0236 C.2       1 <0>         0.5365
     22 O5          3.7790   -5.8622    5.8135 O.2       1 <0>        -0.4104
     23 O6          1.1997   -5.5321    2.3201 O.3       1 <0>        -0.5405
     24 O7          5.2306   -3.2098    5.4884 O.3       1 <0>        -0.4676
     25 C17         5.1210   -0.7312    4.1712 C.3       1 <0>        -0.1163
     26 C18         0.3411   -4.1501   -0.0662 C.3       1 <0>        -0.1047
     27 C19        -1.1496   -4.2416    0.2659 C.3       1 <0>         0.0319
     28 H2         -1.3614   -3.6452    1.1534 H         1 <0>         0.1423
     29 C20        -1.5243   -5.7012    0.5310 C.3       1 <0>        -0.1803
     30 N1         -1.9356   -3.7320   -0.8656 N.4       1 <0>        -0.6366
     31 O8          0.4620   -2.9055   -2.5986 O.3       1 <0>        -0.3202
     32 C21         0.5209   -2.2693   -3.8769 C.3       1 <0>         0.0158
     33 H3          2.9107    1.4906   -0.9556 H         1 <0>         0.0940
     34 H4          1.3045    1.8190   -1.6489 H         1 <0>         0.0906
     35 H5          1.5662    1.9771    0.1046 H         1 <0>         0.0899
     36 H6          1.1189   -0.3766   -2.6784 H         1 <0>         0.1549
     37 H7          0.7287   -6.3759    2.2848 H         1 <0>         0.3983
     38 H8          5.0690   -2.9372    6.4020 H         1 <0>         0.4132
     39 H9          4.8336   -0.0837    4.9997 H         1 <0>         0.0879
     40 H10         6.0778   -1.2033    4.3941 H         1 <0>         0.0912
     41 H11         5.2117   -0.1382    3.2612 H         1 <0>         0.0838
     42 H12         0.5425   -4.6975   -0.9870 H         1 <0>         0.1068
     43 H13         0.9221   -4.5829    0.7482 H         1 <0>         0.1532
     44 H14        -0.9698   -6.0675    1.3949 H         1 <0>         0.1048
     45 H15        -2.5939   -5.7714    0.7292 H         1 <0>         0.0848
     46 H16        -1.2763   -6.3043   -0.3424 H         1 <0>         0.0859
     47 H17        -1.7607   -2.7448   -0.9791 H         1 <0>         0.4296
     48 H18        -1.6685   -4.2199   -1.7075 H         1 <0>         0.4341
     49 H19        -0.1790   -1.4340   -3.8996 H         1 <0>         0.0680
     50 H20         1.5316   -1.9014   -4.0534 H         1 <0>         0.0718
     51 H21         0.2549   -2.9874   -4.6526 H         1 <0>         0.1167
     52 H22        -2.9174   -3.8813   -0.6875 H         1 <0>         0.4345
@<TRIPOS>BOND
     1    1    2 1
     2    1   33 1
     3    1   34 1
     4    1   35 1
     5    2    7 ar
     6    2    3 ar
     7    3    4 ar
     8    3   36 1
     9    4    5 ar
    10    4   31 1
    11    5    6 ar
    12    5   26 1
    13    6   17 1
    14    6    7 ar
    15    7    8 1
    16    8    9 2
    17    8   10 1
    18   10   11 1
    19   11   16 ar
    20   11   12 ar
    21   12   13 ar
    22   12   25 1
    23   13   14 ar
    24   13   24 1
    25   14   21 1
    26   14   15 ar
    27   15   16 ar
    28   15   18 1
    29   16   17 1
    30   18   19 1
    31   18   20 1
    32   18   23 1
    33   20   21 1
    34   21   22 2
    35   23   37 1
    36   24   38 1
    37   25   39 1
    38   25   40 1
    39   25   41 1
    40   26   27 1
    41   26   42 1
    42   26   43 1
    43   27   28 1
    44   27   29 1
    45   27   30 1
    46   29   44 1
    47   29   45 1
    48   29   46 1
    49   30   47 1
    50   30   48 1
    51   30   52 1
    52   31   32 1
    53   32   49 1
    54   32   50 1
    55   32   51 1
@<TRIPOS>MOLECULE
ZINC09156263
   51    55     0     0     0
SMALL
USER_CHARGES

@<TRIPOS>ATOM
      1 C1         -0.0187    1.5258    0.0104 C.3       1 <0>        -0.1557
      2 C2          0.0021   -0.0041    0.0020 C.3       1 <0>         0.0498
      3 O1          0.6932   -0.4774    1.1597 O.3       1 <0>        -0.2950
      4 C3          0.8021   -1.8251    1.3058 C.ar      1 <0>         0.1260
      5 C4          0.2606   -2.6728    0.3527 C.ar      1 <0>        -0.1612
      6 C5          0.3725   -4.0425    0.5024 C.ar      1 <0>        -0.1219
      7 C6          1.0237   -4.5699    1.6021 C.ar      1 <0>        -0.1281
      8 C7          1.5657   -3.7298    2.5569 C.ar      1 <0>        -0.0993
      9 C8          1.4624   -2.3558    2.4097 C.ar      1 <0>         0.1110
     10 O2          2.0003   -1.5279    3.3449 O.3       1 <0>        -0.4790
     11 C9         -0.2169   -4.9629   -0.5351 C.3       1 <0>         0.4361
     12 N1         -0.8073   -6.1441    0.1220 N.pl3     1 <0>        -0.7349
     13 C10         0.0458   -7.1735    0.4933 C.cat     1 <0>         0.7694
     14 N2          0.9005   -7.6610   -0.4964 N.pl3     1 <0>        -0.6032
     15 C11         1.3589   -6.7060   -1.4025 C.2       1 <0>         0.4754
     16 N3          0.8382   -5.4352   -1.4375 N.pl3     1 <0>        -0.5166
     17 C12         1.4914   -4.7491   -2.4387 C.ar      1 <0>         0.0978
     18 C13         1.4015   -3.4588   -2.9447 C.ar      1 <0>        -0.1161
     19 C14         2.2292   -3.0687   -3.9795 C.ar      1 <0>         0.1168
     20 C15         3.1513   -3.9601   -4.5209 C.ar      1 <0>         0.0763
     21 C16         3.2492   -5.2465   -4.0330 C.ar      1 <0>        -0.0499
     22 C17         2.4184   -5.6541   -2.9852 C.ar      1 <0>         0.0684
     23 N4          2.2841   -6.8287   -2.3081 N.2       1 <0>        -0.4422
     24 O3          3.9636   -3.5530   -5.5406 O.3       1 <0>        -0.3101
     25 C18         3.3189   -3.2994   -6.7904 C.3       1 <0>         0.0583
     26 C19         2.7525   -1.8889   -6.8287 C.3       1 <0>        -0.1920
     27 C20         1.6428   -1.6826   -5.8099 C.3       1 <0>         0.0605
     28 O4          2.1479   -1.7996   -4.4785 O.3       1 <0>        -0.3130
     29 N5          0.0491   -7.6591    1.7023 N.pl3     1 <0>        -0.7037
     30 H1          1.0039    1.9031    0.0027 H         1 <0>         0.0718
     31 H2         -0.5459    1.8868   -0.8726 H         1 <0>         0.0850
     32 H3         -0.5289    1.8773    0.9072 H         1 <0>         0.0698
     33 H4         -1.0205   -0.3814    0.0098 H         1 <0>         0.0650
     34 H5          0.5123   -0.3556   -0.8948 H         1 <0>         0.0673
     35 H6         -0.2492   -2.2634   -0.5069 H         1 <0>         0.1423
     36 H7          1.1087   -5.6405    1.7157 H         1 <0>         0.1047
     37 H8          2.0735   -4.1443    3.4152 H         1 <0>         0.1470
     38 H9          1.3952   -1.3013    4.0643 H         1 <0>         0.3989
     39 H10        -0.9817   -4.4353   -1.1050 H         1 <0>         0.1537
     40 H11        -1.7611   -6.1994    0.2896 H         1 <0>         0.4600
     41 H12         0.6866   -2.7630   -2.5309 H         1 <0>         0.1390
     42 H13         3.9641   -5.9353   -4.4583 H         1 <0>         0.1557
     43 H14         4.0419   -3.4178   -7.5975 H         1 <0>         0.1131
     44 H15         2.5085   -4.0153   -6.9278 H         1 <0>         0.0613
     45 H16         3.5553   -1.1804   -6.6246 H         1 <0>         0.0897
     46 H17         2.3571   -1.6941   -7.8256 H         1 <0>         0.0987
     47 H18         1.2124   -0.6903   -5.9443 H         1 <0>         0.1125
     48 H19         0.8679   -2.4330   -5.9667 H         1 <0>         0.0612
     49 H20        -0.5558   -7.3007    2.3705 H         1 <0>         0.4571
     50 H21         1.1567   -8.5950   -0.5496 H         1 <0>         0.4692
     51 H22         0.6565   -8.3791    1.9341 H         1 <0>         0.4529
@<TRIPOS>BOND
     1    1    2 1
     2    1   30 1
     3    1   31 1
     4    1   32 1
     5    2    3 1
     6    2   33 1
     7    2   34 1
     8    3    4 1
     9    4    9 ar
    10    4    5 ar
    11    5    6 ar
    12    5   35 1
    13    6    7 ar
    14    6   11 1
    15    7    8 ar
    16    7   36 1
    17    8    9 ar
    18    8   37 1
    19    9   10 1
    20   10   38 1
    21   11   16 1
    22   11   12 1
    23   11   39 1
    24   12   13 1
    25   12   40 1
    26   13   14 1
    27   13   29 2
    28   14   15 1
    29   14   50 1
    30   15   23 2
    31   15   16 1
    32   16   17 1
    33   17   22 ar
    34   17   18 ar
    35   18   19 ar
    36   18   41 1
    37   19   28 1
    38   19   20 ar
    39   20   21 ar
    40   20   24 1
    41   21   22 ar
    42   21   42 1
    43   22   23 1
    44   24   25 1
    45   25   26 1
    46   25   43 1
    47   25   44 1
    48   26   27 1
    49   26   45 1
    50   26   46 1
    51   27   28 1
    52   27   47 1
    53   27   48 1
    54   29   49 1
    55   29   51 1
@<TRIPOS>MOLECULE
ZINC67459298
   47    49     0     0     0
SMALL
USER_CHARGES

@<TRIPOS>ATOM
      1 C1         -1.8786   -0.6693    0.0192 C.3       1 <0>        -0.1092
      2 C2         -0.4749   -1.2177    0.0107 C.2       1 <0>         0.0557
      3 C3          0.3614   -1.2353   -1.0446 C.2       1 <0>         0.0171
      4 N1          1.5250   -1.8165   -0.6181 N.pl3     1 <0>        -0.4930
      5 H1          2.3203   -1.9713   -1.1515 H         1 <0>         0.4650
      6 C4          1.3591   -2.1341    0.6839 C.cat     1 <0>         0.3147
      7 N2          0.1624   -1.7685    1.0545 N.pl3     1 <0>        -0.4731
      8 C5          0.0718   -0.7154   -2.4291 C.3       1 <0>         0.2665
      9 H2         -0.5007    0.2064   -2.3257 H         1 <0>         0.1210
     10 C6          1.3939   -0.3729   -3.0855 C.2       1 <0>        -0.3562
     11 C7          1.6983   -0.9914   -4.2452 C.2       1 <0>         0.2887
     12 N3          0.8426   -1.8960   -4.8081 N.am      1 <0>        -0.6458
     13 C8         -0.3365   -2.2355   -4.2721 C.2       1 <0>         0.7058
     14 O1         -1.0307   -3.0514   -4.8467 O.2       1 <0>        -0.5330
     15 N4         -0.7778   -1.7027   -3.1162 N.am      1 <0>        -0.7134
     16 C9          3.0032   -0.6792   -4.9314 C.3       1 <0>        -0.1482
     17 C10         2.2803    0.5655   -2.5012 C.2       1 <0>         0.5810
     18 O2          3.3888    0.7331   -2.9759 O.2       1 <0>        -0.5212
     19 N5          1.8962    1.2726   -1.4200 N.am      1 <0>        -0.7310
     20 C11         2.7637    2.3265   -0.8880 C.3       1 <0>         0.1322
     21 C12         2.1567    2.8845    0.4008 C.3       1 <0>        -0.1182
     22 S1          3.1523    4.2855    0.9810 S.3       1 <0>        -0.0417
     23 C13         2.3350    4.8093    2.4515 C.ar      1 <0>         0.1124
     24 C14         2.8354    5.8907    3.1711 C.ar      1 <0>        -0.1444
     25 C15         2.1840    6.2909    4.3232 C.ar      1 <0>        -0.0533
     26 C16         1.0494    5.5943    4.7195 C.ar      1 <0>        -0.1716
     27 C17         0.6083    4.5309    3.9579 C.ar      1 <0>         0.1106
     28 N6          1.2467    4.1740    2.8595 N.ar      1 <0>        -0.4983
     29 H3         -1.8637    0.3619    0.3719 H         1 <0>         0.1082
     30 H4         -2.2876   -0.7021   -0.9906 H         1 <0>         0.1028
     31 H5         -2.4998   -1.2712    0.6825 H         1 <0>         0.1010
     32 H6          2.0961   -2.6083    1.3150 H         1 <0>         0.2690
     33 H7          1.1038   -2.3153   -5.6429 H         1 <0>         0.4380
     34 H8         -1.6354   -1.9633   -2.7455 H         1 <0>         0.4360
     35 H9          3.7947   -1.2949   -4.5042 H         1 <0>         0.1063
     36 H10         2.9132   -0.8908   -5.9968 H         1 <0>         0.0799
     37 H11         3.2455    0.3740   -4.7893 H         1 <0>         0.1324
     38 H12         1.0455    1.0837   -0.9940 H         1 <0>         0.3918
     39 H13         3.7497    1.9129   -0.6758 H         1 <0>         0.0867
     40 H14         2.8557    3.1266   -1.6224 H         1 <0>         0.0848
     41 H15         1.1373    3.2186    0.2074 H         1 <0>         0.0975
     42 H16         2.1453    2.1062    1.1638 H         1 <0>         0.0905
     43 H17         3.7206    6.4098    2.8343 H         1 <0>         0.1430
     44 H18         2.5493    7.1262    4.9022 H         1 <0>         0.1452
     45 H19         0.5180    5.8815    5.6147 H         1 <0>         0.1416
     46 H20        -0.2734    3.9867    4.2626 H         1 <0>         0.1592
     47 H21        -0.2083   -1.8794    1.9440 H         1 <0>         0.4669
@<TRIPOS>BOND
     1    1    2 1
     2    1   29 1
     3    1   30 1
     4    1   31 1
     5    2    7 1
     6    2    3 2
     7    3    4 1
     8    3    8 1
     9    4    5 1
    10    4    6 1
    11    6    7 2
    12    6   32 1
    13    7   47 1
    14    8    9 1
    15    8   15 1
    16    8   10 1
    17   10   11 2
    18   10   17 1
    19   11   12 1
    20   11   16 1
    21   12   13 am
    22   12   33 1
    23   13   14 2
    24   13   15 am
    25   15   34 1
    26   16   35 1
    27   16   36 1
    28   16   37 1
    29   17   18 2
    30   17   19 am
    31   19   20 1
    32   19   38 1
    33   20   21 1
    34   20   39 1
    35   20   40 1
    36   21   22 1
    37   21   41 1
    38   21   42 1
    39   22   23 1
    40   23   28 ar
    41   23   24 ar
    42   24   25 ar
    43   24   43 1
    44   25   26 ar
    45   25   44 1
    46   26   27 ar
    47   26   45 1
    48   27   28 ar
    49   27   46 1
@<TRIPOS>MOLECULE
ZINC22077413
   34    36     0     0     0
SMALL
USER_CHARGES
5-[(E)-[[1-(4-amino-1,2,5-oxadiazol-3-yl)-5-methyl-triazole-4-carbonyl]hydrazono]methyl]thiophene-2-carboxylic acid
@<TRIPOS>ATOM
      1 C1         -5.1308   10.2049    0.1080 C.3       1 <0>        -0.1221
      2 C2         -3.8643   11.0215    0.1004 C.2       1 <0>         0.1704
      3 C3         -2.5853   10.5413    0.0852 C.2       1 <0>        -0.0871
      4 N1         -1.7383   11.5855    0.0884 N.2       1 <0>        -0.1634
      5 N2         -2.4084   12.6848    0.0958 N.2       1 <0>        -0.0546
      6 N3         -3.7747   12.3701    0.1072 N.pl3     1 <0>        -0.3109
      7 C4         -4.8402   13.2773    0.1223 C.2       1 <0>         0.2930
      8 C5         -4.7227   14.7382    0.1295 C.2       1 <0>         0.3643
      9 N4         -5.9244   15.2463    0.1437 N.2       1 <0>        -0.3486
     10 O1         -6.8491   14.1730    0.1462 O.3       1 <0>         0.0492
     11 N5         -6.1056   12.9673    0.1267 N.2       1 <0>        -0.2595
     12 N6         -3.5340   15.4594    0.1225 N.pl3     1 <0>        -0.8291
     13 C6         -2.1990    9.1182    0.0738 C.2       1 <0>         0.6261
     14 O2         -3.0562    8.2553    0.0776 O.2       1 <0>        -0.4901
     15 N7         -0.8961    8.7736    0.0591 N.am      1 <0>        -0.5765
     16 N8         -0.5292    7.4216    0.0483 N.2       1 <0>        -0.2406
     17 C7          0.7285    7.0890    0.0341 C.2       1 <0>         0.1810
     18 C8          1.1125    5.6742    0.0228 C.2       1 <0>        -0.2000
     19 C9          2.3857    5.1145    0.0072 C.2       1 <0>        -0.0983
     20 C10         2.5034    3.7557    0.0040 C.2       1 <0>        -0.1690
     21 C11         1.3472    2.9851    0.0052 C.2       1 <0>        -0.1261
     22 S1          0.0659    4.2280    0.0247 S.3       1 <0>         0.1688
     23 C12         1.2140    1.5284   -0.0013 C.2       1 <0>         0.5200
     24 O3          2.2078    0.8268   -0.0146 O.co2     1 <0>        -0.6093
     25 O4         -0.0110    0.9628    0.0073 O.co2     1 <0>        -0.7350
     26 H1         -4.8770    9.1346    0.0995 H         1 <0>         0.1353
     27 H2         -5.7286   10.4471   -0.7831 H         1 <0>         0.0984
     28 H3         -5.7112   10.4369    1.0131 H         1 <0>         0.0984
     29 H4         -3.5579   16.5591    0.1290 H         1 <0>         0.4460
     30 H5         -2.5697   14.9303    0.1105 H         1 <0>         0.4535
     31 H6         -0.1208    9.5539    0.0556 H         1 <0>         0.4096
     32 H7          1.5038    7.8694    0.0306 H         1 <0>         0.1339
     33 H8          3.2637    5.7434    0.0026 H         1 <0>         0.1321
     34 H9          3.4767    3.2877   -0.0024 H         1 <0>         0.1400
@<TRIPOS>BOND
     1    1    2 1
     2    1   26 1
     3    1   27 1
     4    1   28 1
     5    2    6 1
     6    2    3 2
     7    3    4 1
     8    3   13 1
     9    4    5 2
    10    5    6 1
    11    6    7 1
    12    7   11 2
    13    7    8 1
    14    8    9 2
    15    8   12 1
    16    9   10 1
    17   10   11 1
    18   12   29 1
    19   12   30 1
    20   13   14 2
    21   13   15 am
    22   15   16 1
    23   15   31 1
    24   16   17 2
    25   17   18 1
    26   17   32 1
    27   18   22 1
    28   18   19 2
    29   19   20 1
    30   19   33 1
    31   20   21 2
    32   20   34 1
    33   21   22 1
    34   21   23 1
    35   23   24 2
    36   23   25 1
@<TRIPOS>MOLECULE
ZINC08666303
   43    46     0     0     0
SMALL
USER_CHARGES

@<TRIPOS>ATOM
      1 C1          0.0636    1.5386    1.8434 C.3       1 <0>        -0.0826
      2 C2          0.0979    0.0818    1.4591 C.2       1 <0>        -0.2330
      3 C3         -1.0724   -0.5650    1.1273 C.2       1 <0>        -0.0188
      4 C4         -1.0481   -1.9140    0.7704 C.2       1 <0>        -0.2518
      5 C5         -2.2994   -2.6114    0.4135 C.2       1 <0>         0.2916
      6 C6         -3.5059   -1.9032    0.4319 C.2       1 <0>        -0.1324
      7 C7         -4.6841   -2.5569    0.0966 C.2       1 <0>        -0.0297
      8 C8         -4.6033   -3.9277   -0.2522 C.2       1 <0>        -0.2395
      9 C9         -5.7428   -4.6692   -0.6058 C.2       1 <0>         0.2504
     10 N1         -5.6142   -5.9431   -0.9229 N.2       1 <0>        -0.4892
     11 C10        -4.4357   -6.5512   -0.9189 C.2       1 <0>         0.4686
     12 S1         -4.3532   -8.2562   -1.3558 S.3       1 <0>        -0.7050
     13 N2         -3.2907   -5.9005   -0.5890 N.2       1 <0>        -0.4601
     14 C11        -3.3438   -4.5690   -0.2457 C.2       1 <0>         0.3832
     15 N3         -2.2535   -3.8964    0.0767 N.2       1 <0>        -0.4213
     16 N4         -7.0022   -4.0625   -0.6209 N.4       1 <0>        -0.5614
     17 C12        -5.9826   -1.8448    0.1038 C.ar      1 <0>        -0.0673
     18 C13        -6.8902   -2.0537    1.1426 C.ar      1 <0>        -0.0982
     19 C14        -8.0982   -1.3874    1.1436 C.ar      1 <0>        -0.1073
     20 C15        -8.4106   -0.5138    0.1170 C.ar      1 <0>        -0.0485
     21 C16        -7.5149   -0.3024   -0.9157 C.ar      1 <0>        -0.0389
     22 C17        -6.3007   -0.9582   -0.9248 C.ar      1 <0>        -0.0512
     23 N5         -7.8569    0.6338   -2.0100 N.pl3     1 <0>         0.0261
     24 O1         -8.9182    1.2128   -2.0006 O.2       1 <0>        -0.1439
     25 O2         -7.0750    0.8194   -2.9132 O.3       1 <0>        -0.1383
     26 C18         0.1807   -2.6061    0.7528 C.2       1 <0>         0.3221
     27 O3          0.2213   -3.8973    0.4132 O.2       1 <0>        -0.5842
     28 C19         1.3575   -1.9289    1.0937 C.2       1 <0>        -0.1623
     29 C20         1.3088   -0.5958    1.4370 C.2       1 <0>        -0.0360
     30 Cl1         2.8779   -2.7667    1.0769 Cl        1 <0>        -0.0988
     31 H1          1.0746    1.8793    2.0668 H         1 <0>         0.0510
     32 H2         -0.3425    2.1227    1.0176 H         1 <0>         0.0481
     33 H3         -0.5661    1.6674    2.7237 H         1 <0>         0.0476
     34 H4         -2.0092   -0.0278    1.1436 H         1 <0>         0.1008
     35 H5         -3.5207   -0.8583    0.7047 H         1 <0>         0.1445
     36 H6         -7.3890   -4.0671    0.3110 H         1 <0>         0.4295
     37 H7         -6.9131   -3.1106   -0.9433 H         1 <0>         0.4246
     38 H8         -6.6478   -2.7359    1.9440 H         1 <0>         0.1639
     39 H9         -8.8017   -1.5483    1.9472 H         1 <0>         0.1656
     40 H10        -9.3579    0.0050    0.1219 H         1 <0>         0.1663
     41 H11        -5.6003   -0.7890   -1.7293 H         1 <0>         0.1729
     42 H12         2.2191   -0.0753    1.6952 H         1 <0>         0.1072
     43 H13        -7.6135   -4.5719   -1.2413 H         1 <0>         0.4356
@<TRIPOS>BOND
     1    1    2 1
     2    1   31 1
     3    1   32 1
     4    1   33 1
     5    2   29 1
     6    2    3 2
     7    3    4 1
     8    3   34 1
     9    4    5 2
    10    4   26 1
    11    5   15 1
    12    5    6 1
    13    6    7 2
    14    6   35 1
    15    7    8 1
    16    7   17 1
    17    8    9 2
    18    8   14 1
    19    9   10 1
    20    9   16 1
    21   10   11 2
    22   11   13 1
    23   11   12 1
    24   13   14 1
    25   14   15 2
    26   16   37 1
    27   16   36 1
    28   16   43 1
    29   17   22 ar
    30   17   18 ar
    31   18   19 ar
    32   18   38 1
    33   19   20 ar
    34   19   39 1
    35   20   21 ar
    36   20   40 1
    37   21   22 ar
    38   21   23 1
    39   22   41 1
    40   23   24 2
    41   23   25 1
    42   26   27 2
    43   26   28 1
    44   28   29 2
    45   28   30 1
    46   29   42 1
@<TRIPOS>MOLECULE
ZINC44963031
   51    53     0     0     0
SMALL
USER_CHARGES

@<TRIPOS>ATOM
      1 C1          1.5300    1.0464   -0.2198 C.3       1 <0>        -0.1191
      2 C2          1.0527   -0.3826   -0.2526 C.2       1 <0>         0.0079
      3 C3         -0.3169   -0.6741   -0.1853 C.2       1 <0>        -0.2322
      4 C4         -0.7363   -1.9607   -0.2158 C.2       1 <0>         0.1737
      5 N1          0.1568   -2.9787   -0.3113 N.am      1 <0>        -0.3602
      6 C5          1.4788   -2.7310   -0.3773 C.2       1 <0>         0.5075
      7 O1          2.2694   -3.6570   -0.4625 O.2       1 <0>        -0.4766
      8 C6          1.9482   -1.4066   -0.3537 C.2       1 <0>        -0.2364
      9 O2         -0.3071   -4.3162   -0.3414 O.3       1 <0>        -0.1144
     10 C7         -0.4758   -4.8434   -1.6589 C.3       1 <0>         0.1879
     11 H1         -0.8618   -4.0638   -2.3157 H         1 <0>         0.0669
     12 C8         -1.4636   -6.0123   -1.6185 C.3       1 <0>         0.1060
     13 H2         -1.0980   -6.7745   -0.9305 H         1 <0>         0.0864
     14 C9         -1.5931   -6.6100   -3.0229 C.3       1 <0>         0.1300
     15 H3         -2.0054   -5.8625   -3.7007 H         1 <0>         0.0692
     16 C10        -0.2065   -7.0374   -3.5137 C.3       1 <0>         0.0672
     17 H4          0.1846   -7.8204   -2.8640 H         1 <0>         0.0695
     18 C11         0.7328   -5.8289   -3.4810 C.3       1 <0>        -0.0045
     19 H5          0.3627   -5.0623   -4.1617 H         1 <0>         0.0606
     20 O3          0.7839   -5.3026   -2.1534 O.3       1 <0>        -0.3303
     21 C12         2.1144   -6.2545   -3.9066 C.2       1 <0>         0.5060
     22 O4          2.3074   -6.6491   -5.0440 O.co2     1 <0>        -0.6856
     23 O5          3.0391   -6.2043   -3.1136 O.co2     1 <0>        -0.6473
     24 O6         -0.3046   -7.5313   -4.8511 O.3       1 <0>        -0.5660
     25 O7         -2.4585   -7.7464   -2.9808 O.3       1 <0>        -0.5510
     26 O8         -2.7398   -5.5440   -1.1779 O.3       1 <0>        -0.5427
     27 C13        -2.2101   -2.2663   -0.1425 C.3       1 <0>        -0.0591
     28 C14        -3.0052   -1.0770   -0.6850 C.3       1 <0>        -0.1103
     29 C15        -4.5016   -1.3873   -0.6107 C.3       1 <0>        -0.1202
     30 C16        -4.8974   -1.6442    0.8448 C.3       1 <0>        -0.1196
     31 C17        -4.1023   -2.8335    1.3873 C.3       1 <0>        -0.1195
     32 C18        -2.6060   -2.5231    1.3129 C.3       1 <0>        -0.1086
     33 H6          2.6177    1.0678   -0.2872 H         1 <0>         0.0712
     34 H7          1.1030    1.5914   -1.0617 H         1 <0>         0.0773
     35 H8          1.2145    1.5136    0.7131 H         1 <0>         0.0771
     36 H9         -1.0369    0.1272   -0.1087 H         1 <0>         0.1519
     37 H10         3.0070   -1.2018   -0.4108 H         1 <0>         0.1542
     38 H11         0.5383   -7.8205   -5.2264 H         1 <0>         0.4037
     39 H12        -2.5860   -8.1755   -3.8379 H         1 <0>         0.3880
     40 H13        -2.7515   -5.2387   -0.2605 H         1 <0>         0.3788
     41 H14        -2.4277   -3.1517   -0.7399 H         1 <0>         0.0953
     42 H15        -2.7876   -0.1916   -0.0877 H         1 <0>         0.0726
     43 H16        -2.7232   -0.8940   -1.7219 H         1 <0>         0.0687
     44 H17        -5.0680   -0.5401   -0.9972 H         1 <0>         0.0650
     45 H18        -4.7191   -2.2727   -1.2080 H         1 <0>         0.0667
     46 H19        -4.6798   -0.7588    1.4421 H         1 <0>         0.0617
     47 H20        -5.9634   -1.8652    0.8978 H         1 <0>         0.0618
     48 H21        -4.3843   -3.0164    2.4241 H         1 <0>         0.0656
     49 H22        -4.3199   -3.7188    0.7899 H         1 <0>         0.0672
     50 H23        -2.0395   -3.3704    1.6994 H         1 <0>         0.0688
     51 H24        -2.3884   -1.6378    1.9103 H         1 <0>         0.0694
@<TRIPOS>BOND
     1    1    2 1
     2    1   33 1
     3    1   34 1
     4    1   35 1
     5    2    8 2
     6    2    3 1
     7    3    4 2
     8    3   36 1
     9    4    5 1
    10    4   27 1
    11    5    6 am
    12    5    9 1
    13    6    7 2
    14    6    8 1
    15    8   37 1
    16    9   10 1
    17   10   11 1
    18   10   20 1
    19   10   12 1
    20   12   13 1
    21   12   14 1
    22   12   26 1
    23   14   15 1
    24   14   16 1
    25   14   25 1
    26   16   17 1
    27   16   18 1
    28   16   24 1
    29   18   19 1
    30   18   20 1
    31   18   21 1
    32   21   22 2
    33   21   23 1
    34   24   38 1
    35   25   39 1
    36   26   40 1
    37   27   32 1
    38   27   28 1
    39   27   41 1
    40   28   29 1
    41   28   42 1
    42   28   43 1
    43   29   30 1
    44   29   44 1
    45   29   45 1
    46   30   31 1
    47   30   46 1
    48   30   47 1
    49   31   32 1
    50   31   48 1
    51   31   49 1
    52   32   50 1
    53   32   51 1
@<TRIPOS>MOLECULE
ZINC60628567
   50    51     0     0     0
SMALL
USER_CHARGES

@<TRIPOS>ATOM
      1 C1          0.2026    1.7944   -0.5485 C.3       1 <0>        -0.1538
      2 C2          0.1764    0.2694   -0.4279 C.3       1 <0>         0.0809
      3 O1          0.8088   -0.3098   -1.5710 O.3       1 <0>        -0.3649
      4 C3          0.8698   -1.6539   -1.6204 C.2       1 <0>         0.6483
      5 O2          0.3990   -2.3170   -0.7175 O.2       1 <0>        -0.5675
      6 N1          1.4532   -2.2638   -2.6711 N.am      1 <0>        -0.7072
      7 C4          1.6230   -3.7189   -2.6717 C.3       1 <0>         0.1486
      8 C5          0.3707   -4.3783   -3.2529 C.3       1 <0>        -0.1239
      9 C6          0.5057   -5.8996   -3.1604 C.3       1 <0>        -0.0987
     10 C7          0.5114   -6.3226   -1.6900 C.3       1 <0>        -0.1508
     11 C8         -0.6736   -6.5607   -3.8767 C.3       1 <0>        -0.1462
     12 C9          2.8376   -4.0903   -3.5249 C.3       1 <0>         0.1097
     13 N2          4.0147   -3.3650   -3.0405 N.am      1 <0>        -0.7296
     14 C10         5.2073   -3.5362   -3.6445 C.2       1 <0>         0.5639
     15 O3          5.3063   -4.2921   -4.5907 O.2       1 <0>        -0.5284
     16 C11         6.3976   -2.8028   -3.1548 C.ar      1 <0>        -0.0823
     17 C12         6.2772   -1.9356   -2.0578 C.ar      1 <0>        -0.1672
     18 C13         7.3564   -1.2504   -1.5891 C.ar      1 <0>        -0.0111
     19 C14         8.6059   -1.4085   -2.2053 C.ar      1 <0>        -0.2227
     20 C15         8.7423   -2.2822   -3.3158 C.ar      1 <0>         0.2149
     21 C16         7.6202   -2.9835   -3.7803 C.ar      1 <0>        -0.0712
     22 N3          9.9440   -2.4224   -3.8933 N.2       1 <0>        -0.5502
     23 C17        10.9950   -1.7573   -3.4389 C.2       1 <0>         0.5085
     24 N4         10.9187   -0.9194   -2.3917 N.pl3     1 <0>        -0.6013
     25 H1         11.7152   -0.4533   -2.0930 H         1 <0>         0.4206
     26 C18         9.7481   -0.7166   -1.7493 C.2       1 <0>         0.5038
     27 O4          9.6732    0.1223   -0.7013 O.3       1 <0>        -0.6128
     28 S1         12.5062   -1.9737   -4.2138 S.2       1 <0>        -0.7100
     29 H2          1.2359    2.1368   -0.6045 H         1 <0>         0.0687
     30 H3         -0.3297    2.0967   -1.4504 H         1 <0>         0.0658
     31 H4         -0.2798    2.2362    0.3234 H         1 <0>         0.0813
     32 H5          0.7087   -0.0329    0.4740 H         1 <0>         0.0689
     33 H6         -0.8569   -0.0729   -0.3719 H         1 <0>         0.0666
     34 H7          1.7605   -1.7393   -3.4270 H         1 <0>         0.4098
     35 H8          1.7763   -4.0672   -1.6503 H         1 <0>         0.1048
     36 H9         -0.5046   -4.0562   -2.6888 H         1 <0>         0.0763
     37 H10         0.2577   -4.0864   -4.2970 H         1 <0>         0.0712
     38 H11         1.4379   -6.2109   -3.6317 H         1 <0>         0.0772
     39 H12        -0.4458   -6.0679   -1.2350 H         1 <0>         0.0560
     40 H13         0.6710   -7.3987   -1.6222 H         1 <0>         0.0551
     41 H14         1.3129   -5.8025   -1.1655 H         1 <0>         0.0572
     42 H15        -0.6777   -6.2593   -4.9242 H         1 <0>         0.0550
     43 H16        -0.5775   -7.6444   -3.8108 H         1 <0>         0.0563
     44 H17        -1.6058   -6.2493   -3.4054 H         1 <0>         0.0536
     45 H18         3.0172   -5.1631   -3.4538 H         1 <0>         0.0923
     46 H19         2.6475   -3.8218   -4.5640 H         1 <0>         0.0790
     47 H20         3.9357   -2.7616   -2.2852 H         1 <0>         0.4028
     48 H21         5.3168   -1.8101   -1.5798 H         1 <0>         0.1200
     49 H22         7.2501   -0.5859   -0.7444 H         1 <0>         0.1355
     50 H23         7.7077   -3.6557   -4.6210 H         1 <0>         0.1474
@<TRIPOS>BOND
     1    1    2 1
     2    1   29 1
     3    1   30 1
     4    1   31 1
     5    2    3 1
     6    2   32 1
     7    2   33 1
     8    3    4 1
     9    4    5 2
    10    4    6 am
    11    6    7 1
    12    6   34 1
    13    7    8 1
    14    7   12 1
    15    7   35 1
    16    8    9 1
    17    8   36 1
    18    8   37 1
    19    9   10 1
    20    9   11 1
    21    9   38 1
    22   10   39 1
    23   10   40 1
    24   10   41 1
    25   11   42 1
    26   11   43 1
    27   11   44 1
    28   12   13 1
    29   12   45 1
    30   12   46 1
    31   13   14 am
    32   13   47 1
    33   14   15 2
    34   14   16 1
    35   16   21 ar
    36   16   17 ar
    37   17   18 ar
    38   17   48 1
    39   18   19 ar
    40   18   49 1
    41   19   26 2
    42   19   20 ar
    43   20   21 ar
    44   20   22 2
    45   21   50 1
    46   22   23 1
    47   23   24 1
    48   23   28 2
    49   24   25 1
    50   24   26 1
    51   26   27 1
@<TRIPOS>MOLECULE
ZINC66250581
   37    40     0     0     0
SMALL
USER_CHARGES

@<TRIPOS>ATOM
      1 C1         -0.0168    1.3899    0.0097 C.ar      1 <0>        -0.1272
      2 C2          1.1197    2.1542    0.0029 C.ar      1 <0>        -0.0479
      3 C3          2.3699    1.5132   -0.0121 C.ar      1 <0>         0.0479
      4 C4          3.6210    2.1528   -0.0190 C.ar      1 <0>        -0.6126
      5 C5          4.7495    1.3795   -0.0333 C.ar      1 <0>         0.0113
      6 C6          4.7211   -0.0150   -0.0419 C.ar      1 <0>        -0.1339
      7 C7          3.5102   -0.6815   -0.0352 C.ar      1 <0>         0.1811
      8 C8          2.3713    0.1179   -0.0200 C.ar      1 <0>        -0.1207
      9 C9          1.2134   -0.6736   -0.0140 C.ar      1 <0>        -0.1729
     10 C10         0.0021   -0.0041    0.0020 C.ar      1 <0>        -0.0039
     11 C11         1.7183   -2.0517   -0.0255 C.2       1 <0>         0.5828
     12 O1          1.0400   -3.0619   -0.0245 O.2       1 <0>        -0.4961
     13 N1          3.0766   -2.0013   -0.0391 N.am      1 <0>        -0.6544
     14 S1          3.7339    3.9112   -0.0100 S.o2      1 <0>         2.6166
     15 O2          2.8745    4.3680    1.0254 O.2       1 <0>        -1.0050
     16 O3          5.1183    4.2295   -0.0469 O.2       1 <0>        -1.0065
     17 N2          3.0860    4.4507   -1.4353 N.2       1 <0>        -1.0110
     18 C12         3.0408    5.8095   -1.7056 C.2       1 <0>         0.4359
     19 N3          2.5629    6.4159   -2.7714 N.2       1 <0>        -0.5751
     20 C13         2.5938    7.7326   -2.8781 C.2       1 <0>         0.1304
     21 C14         3.1365    8.4217   -1.8459 C.2       1 <0>        -0.3045
     22 S2          3.5769    7.0849   -0.7473 S.3       1 <0>        -0.1250
     23 C15         2.0497    8.4365   -4.0945 C.3       1 <0>        -0.0607
     24 C16         2.7116    7.8861   -5.3314 C.2       1 <0>         0.5147
     25 O4          3.5432    7.0086   -5.2347 O.2       1 <0>        -0.5068
     26 N4          2.3793    8.3689   -6.5450 N.am      1 <0>        -0.8687
     27 H1         -0.9734    1.8910    0.0262 H         1 <0>         0.1399
     28 H2          1.0560    3.2323    0.0087 H         1 <0>         0.1558
     29 H3          5.7100    1.8733   -0.0386 H         1 <0>         0.1511
     30 H4          5.6452   -0.5739   -0.0540 H         1 <0>         0.1402
     31 H5         -0.9244   -0.5591    0.0082 H         1 <0>         0.1389
     32 H6          3.6598   -2.7763   -0.0496 H         1 <0>         0.4224
     33 H7          3.2643    9.4867   -1.7203 H         1 <0>         0.1711
     34 H8          0.9734    8.2757   -4.1562 H         1 <0>         0.1015
     35 H9          2.2537    9.5045   -4.0179 H         1 <0>         0.1006
     36 H10         1.7141    9.0707   -6.6224 H         1 <0>         0.3955
     37 H11         2.8053    8.0146   -7.3412 H         1 <0>         0.3955
@<TRIPOS>BOND
     1    1   10 ar
     2    1    2 ar
     3    1   27 1
     4    2    3 ar
     5    2   28 1
     6    3    8 ar
     7    3    4 ar
     8    4    5 ar
     9    4   14 1
    10    5    6 ar
    11    5   29 1
    12    6    7 ar
    13    6   30 1
    14    7   13 1
    15    7    8 ar
    16    8    9 ar
    17    9   10 ar
    18    9   11 1
    19   10   31 1
    20   11   12 2
    21   11   13 am
    22   13   32 1
    23   14   15 2
    24   14   16 2
    25   14   17 1
    26   17   18 1
    27   18   22 1
    28   18   19 2
    29   19   20 1
    30   20   21 2
    31   20   23 1
    32   21   22 1
    33   21   33 1
    34   23   24 1
    35   23   34 1
    36   23   35 1
    37   24   25 2
    38   24   26 am
    39   26   36 1
    40   26   37 1
@<TRIPOS>MOLECULE
ZINC13246260
   46    48     0     0     0
SMALL
USER_CHARGES
3-[(3-carbamoyl-4,5,6,7-tetrahydrobenzothiophen-2-yl)sulfamoyl]-4,5-dimethyl-benzoic acid
@<TRIPOS>ATOM
      1 C1         -0.6283    2.5396    1.9458 C.3       1 <0>        -0.1112
      2 C2         -1.6731    2.6431    0.8647 C.ar      1 <0>        -0.1248
      3 C3         -1.4820    3.5033   -0.1970 C.ar      1 <0>        -0.0100
      4 C4         -2.4509    3.5979   -1.1976 C.ar      1 <0>        -0.1301
      5 C5         -3.6105    2.8243   -1.1133 C.ar      1 <0>         0.0184
      6 C6         -3.7863    1.9646   -0.0492 C.ar      1 <0>        -0.6922
      7 C7         -2.8218    1.8758    0.9392 C.ar      1 <0>         0.0134
      8 C8         -3.0240    0.9392    2.1024 C.3       1 <0>        -0.1647
      9 S1         -5.2455    0.9827    0.0557 S.o2      1 <0>         2.6767
     10 O1         -6.0654    1.3548   -1.0436 O.2       1 <0>        -0.9296
     11 O2         -4.8197   -0.3560    0.2697 O.2       1 <0>        -0.9395
     12 N1         -6.0512    1.4478    1.4258 N.pl3     1 <0>        -1.0040
     13 C9         -6.5770    2.7225    1.5191 C.2       1 <0>         0.0958
     14 C10        -7.3591    3.2617    2.5325 C.2       1 <0>        -0.2291
     15 C11        -7.7870    4.6437    2.3864 C.2       1 <0>        -0.0671
     16 C12        -7.3684    5.2594    1.2606 C.2       1 <0>        -0.1791
     17 S2         -6.4144    4.0386    0.4040 S.3       1 <0>         0.1914
     18 C13        -7.6520    6.6696    0.8433 C.3       1 <0>        -0.0404
     19 C14        -8.8041    7.2067    1.7049 C.3       1 <0>        -0.1118
     20 C15        -8.5143    6.8829    3.1734 C.3       1 <0>        -0.1201
     21 C16        -8.6456    5.3772    3.4094 C.3       1 <0>        -0.0575
     22 C17        -7.7379    2.4685    3.7039 C.2       1 <0>         0.5904
     23 O3         -7.0248    2.4612    4.6905 O.2       1 <0>        -0.5357
     24 N2         -8.8759    1.7466    3.6896 N.am      1 <0>        -0.8488
     25 C18        -2.2531    4.5166   -2.3374 C.2       1 <0>         0.4914
     26 O4         -3.0979    4.5968   -3.2066 O.co2     1 <0>        -0.6225
     27 H1         -0.8441    3.2650    2.7302 H         1 <0>         0.0693
     28 H2         -0.6400    1.5345    2.3673 H         1 <0>         0.0677
     29 H3          0.3547    2.7445    1.5219 H         1 <0>         0.0683
     30 H4         -0.5848    4.1018   -0.2540 H         1 <0>         0.1412
     31 H5         -4.3661    2.8963   -1.8816 H         1 <0>         0.1496
     32 H6         -3.4620    1.4862    2.9374 H         1 <0>         0.0834
     33 H7         -3.6931    0.1313    1.8064 H         1 <0>         0.0834
     34 H8         -2.0631    0.5228    2.4049 H         1 <0>         0.0895
     35 H9         -6.1541    0.8256    2.1627 H         1 <0>         0.4298
     36 H10        -7.9390    6.6907   -0.2080 H         1 <0>         0.0858
     37 H11        -6.7639    7.2833    0.9939 H         1 <0>         0.0864
     38 H12        -9.7378    6.7321    1.4034 H         1 <0>         0.0682
     39 H13        -8.8854    8.2863    1.5780 H         1 <0>         0.0741
     40 H14        -9.2250    7.4123    3.8080 H         1 <0>         0.0688
     41 H15        -7.5015    7.2012    3.4202 H         1 <0>         0.0684
     42 H16        -9.6875    5.0786    3.2933 H         1 <0>         0.0760
     43 H17        -8.3051    5.1319    4.4154 H         1 <0>         0.0750
     44 H18        -9.4441    1.7525    2.9034 H         1 <0>         0.4041
     45 H19        -9.1268    1.2213    4.4654 H         1 <0>         0.4011
     46 O5         -1.1385    5.2696   -2.4100 O.co2     1 <0>        -0.7496
@<TRIPOS>BOND
     1    1    2 1
     2    1   27 1
     3    1   28 1
     4    1   29 1
     5    2    7 ar
     6    2    3 ar
     7    3    4 ar
     8    3   30 1
     9    4    5 ar
    10    4   25 1
    11    5    6 ar
    12    5   31 1
    13    6    7 ar
    14    6    9 1
    15    7    8 1
    16    8   32 1
    17    8   33 1
    18    8   34 1
    19    9   10 2
    20    9   11 2
    21    9   12 1
    22   12   13 1
    23   12   35 1
    24   13   17 1
    25   13   14 2
    26   14   15 1
    27   14   22 1
    28   15   21 1
    29   15   16 2
    30   16   17 1
    31   16   18 1
    32   18   19 1
    33   18   36 1
    34   18   37 1
    35   19   20 1
    36   19   38 1
    37   19   39 1
    38   20   21 1
    39   20   40 1
    40   20   41 1
    41   21   42 1
    42   21   43 1
    43   22   23 2
    44   22   24 am
    45   24   44 1
    46   24   45 1
    47   25   26 2
    48   25   46 1
@<TRIPOS>MOLECULE
ZINC01021764
   36    37     0     0     0
SMALL
USER_CHARGES

@<TRIPOS>ATOM
      1 C1          0.0191    1.5028    0.0060 C.3       1 <0>        -0.1481
      2 C2          0.0204   -0.0042    0.0000 C.2       1 <0>         0.1139
      3 C3         -0.0862   -0.7079   -1.1994 C.2       1 <0>        -0.2397
      4 C4         -0.0847   -2.0655   -1.1955 C.2       1 <0>         0.1966
      5 N1          0.0192   -2.7642   -0.0401 N.am      1 <0>        -0.5988
      6 H1          0.0176   -3.7339   -0.0669 H         1 <0>         0.4195
      7 C5          0.1251   -2.1346    1.1455 C.2       1 <0>         0.5406
      8 O1          0.2177   -2.7807    2.1748 O.2       1 <0>        -0.5480
      9 C6          0.1339   -0.7164    1.1922 C.2       1 <0>        -0.2903
     10 C7          0.2549   -0.0107    2.4770 C.2       1 <0>         0.5769
     11 O2          0.1597    1.2014    2.5165 O.2       1 <0>        -0.5243
     12 N2          0.4713   -0.7070    3.6105 N.am      1 <0>        -0.5278
     13 N3          0.4761   -0.0483    4.8471 N.pl3     1 <0>        -0.4560
     14 C8          0.6917   -0.7421    5.9766 C.2       1 <0>         0.2491
     15 C9          0.8009   -0.0738    7.1949 C.ar      1 <0>        -0.3103
     16 C10         1.1376   -0.7772    8.3742 C.ar      1 <0>         0.0085
     17 C11         1.2409   -0.1151    9.5541 C.ar      1 <0>        -0.1627
     18 C12         1.0198    1.2644    9.6381 C.ar      1 <0>         0.3478
     19 C13         0.6881    2.0052    8.5234 C.ar      1 <0>        -0.4188
     20 C14         0.5743    1.3755    7.2761 C.ar      1 <0>         0.4276
     21 O3          0.2864    2.0192    6.2757 O.3       1 <0>        -0.5743
     22 Br1         0.3962    3.8674    8.6753 Br        1 <0>        -0.0956
     23 O4          1.1337    1.8844   10.8390 O.3       1 <0>        -0.6429
     24 Br2         1.6924   -1.0768   11.1184 Br        1 <0>        -0.0806
     25 C15        -0.2013   -2.8088   -2.5013 C.3       1 <0>        -0.1323
     26 H2          1.0465    1.8669    0.0155 H         1 <0>         0.0925
     27 H3         -0.4879    1.8692   -0.8866 H         1 <0>         0.0710
     28 H4         -0.5020    1.8622    0.8933 H         1 <0>         0.1188
     29 H5         -0.1705   -0.1717   -2.1331 H         1 <0>         0.1573
     30 H6          0.6237   -1.6641    3.5702 H         1 <0>         0.4313
     31 H7          0.3237    0.9088    4.8874 H         1 <0>         0.4515
     32 H8          0.7804   -1.8179    5.9410 H         1 <0>         0.1518
     33 H9          1.3124   -1.8423    8.3360 H         1 <0>         0.1176
     34 H10         0.7941   -2.9871   -2.9080 H         1 <0>         0.0970
     35 H11        -0.7013   -3.7626   -2.3330 H         1 <0>         0.0824
     36 H12        -0.7811   -2.2142   -3.2073 H         1 <0>         0.0992
@<TRIPOS>BOND
     1    1    2 1
     2    1   26 1
     3    1   27 1
     4    1   28 1
     5    2    9 2
     6    2    3 1
     7    3    4 2
     8    3   29 1
     9    4    5 1
    10    4   25 1
    11    5    6 1
    12    5    7 am
    13    7    8 2
    14    7    9 1
    15    9   10 1
    16   10   11 2
    17   10   12 am
    18   12   13 1
    19   12   30 1
    20   13   14 2
    21   13   31 1
    22   14   15 1
    23   14   32 1
    24   15   20 ar
    25   15   16 ar
    26   16   17 ar
    27   16   33 1
    28   17   18 ar
    29   17   24 1
    30   18   19 ar
    31   18   23 1
    32   19   20 ar
    33   19   22 1
    34   20   21 1
    35   25   34 1
    36   25   35 1
    37   25   36 1
@<TRIPOS>MOLECULE
ZINC33958367
   45    47     0     0     0
SMALL
USER_CHARGES

@<TRIPOS>ATOM
      1 C1         -0.0391    1.4908    0.0914 C.3       1 <0>        -0.1295
      2 C2         -0.0087   -0.0146    0.0297 C.2       1 <0>         0.1630
      3 C3         -1.1700   -0.7029    0.0330 C.2       1 <0>        -0.2345
      4 C4         -1.0940   -2.2149   -0.0302 C.3       1 <0>         0.2261
      5 H1         -1.6476   -2.5427   -0.9100 H         1 <0>         0.1025
      6 N1          0.2501   -2.8135   -0.0905 N.pl3     1 <0>        -0.6367
      7 C5          1.3187   -1.9923   -0.0860 C.2       1 <0>         0.5640
      8 S1          2.8875   -2.6742   -0.1563 S.2       1 <0>        -0.6174
      9 N2          1.1932   -0.6602   -0.0343 N.pl3     1 <0>        -0.6000
     10 C6         -1.7932   -2.7665    1.1856 C.ar      1 <0>        -0.1404
     11 C7         -1.1831   -2.6888    2.4252 C.ar      1 <0>        -0.1148
     12 C8         -1.8168   -3.1918    3.5422 C.ar      1 <0>        -0.0857
     13 C9         -3.0781   -3.7805    3.4198 C.ar      1 <0>        -0.1140
     14 C10        -3.6881   -3.8550    2.1651 C.ar      1 <0>        -0.0824
     15 C11        -3.0447   -3.3430    1.0578 C.ar      1 <0>        -0.1120
     16 C12        -3.7622   -4.3213    4.6099 C.2       1 <0>         0.5165
     17 O1         -3.2254   -4.2550    5.7067 O.co2     1 <0>        -0.6834
     18 O2         -4.8660   -4.8359    4.4996 O.co2     1 <0>        -0.6818
     19 C13        -2.4170   -0.0345    0.0940 C.2       1 <0>         0.6191
     20 O3         -3.0774    0.1159   -0.9181 O.2       1 <0>        -0.4906
     21 N3         -2.8729    0.4352    1.2722 N.am      1 <0>        -0.5700
     22 N4         -4.1525    1.0000    1.3532 N.2       1 <0>        -0.2200
     23 C14        -4.5915    1.4523    2.4877 C.2       1 <0>         0.1090
     24 C15        -5.9383    2.0468    2.5730 C.ar      1 <0>        -0.0457
     25 C16        -6.7463    2.1195    1.4357 C.ar      1 <0>        -0.0663
     26 C17        -8.0050    2.6763    1.5223 C.ar      1 <0>        -0.1153
     27 C18        -8.4682    3.1632    2.7332 C.ar      1 <0>        -0.0220
     28 C19        -7.6722    3.0942    3.8644 C.ar      1 <0>        -0.1143
     29 C20        -6.4138    2.5346    3.7926 C.ar      1 <0>        -0.0755
     30 Cl1       -10.0535    3.8636    2.8335 Cl        1 <0>        -0.0705
     31 H2          0.9805    1.8758    0.0747 H         1 <0>         0.0864
     32 H3         -0.5880    1.8786   -0.7668 H         1 <0>         0.0982
     33 H4         -0.5319    1.8069    1.0109 H         1 <0>         0.0916
     34 H5          0.3637   -3.7759   -0.1321 H         1 <0>         0.4486
     35 H6          2.0014   -0.1237   -0.0382 H         1 <0>         0.4394
     36 H7         -0.2082   -2.2335    2.5182 H         1 <0>         0.1060
     37 H8         -1.3392   -3.1312    4.5089 H         1 <0>         0.1288
     38 H9         -4.6629   -4.3086    2.0632 H         1 <0>         0.1303
     39 H10        -3.5170   -3.3959    0.0879 H         1 <0>         0.1172
     40 H11        -2.3152    0.3821    2.0640 H         1 <0>         0.3895
     41 H12        -3.9705    1.3932    3.3693 H         1 <0>         0.1256
     42 H13        -6.3859    1.7408    0.4906 H         1 <0>         0.1453
     43 H14        -8.6307    2.7330    0.6439 H         1 <0>         0.1370
     44 H15        -8.0392    3.4760    4.8057 H         1 <0>         0.1384
     45 H16        -5.7956    2.4776    4.6763 H         1 <0>         0.1402
@<TRIPOS>BOND
     1    1    2 1
     2    1   31 1
     3    1   32 1
     4    1   33 1
     5    2    9 1
     6    2    3 2
     7    3    4 1
     8    3   19 1
     9    4    5 1
    10    4    6 1
    11    4   10 1
    12    6    7 1
    13    6   34 1
    14    7    8 2
    15    7    9 1
    16    9   35 1
    17   10   15 ar
    18   10   11 ar
    19   11   12 ar
    20   11   36 1
    21   12   13 ar
    22   12   37 1
    23   13   14 ar
    24   13   16 1
    25   14   15 ar
    26   14   38 1
    27   15   39 1
    28   16   17 2
    29   16   18 1
    30   19   20 2
    31   19   21 am
    32   21   22 1
    33   21   40 1
    34   22   23 2
    35   23   24 1
    36   23   41 1
    37   24   29 ar
    38   24   25 ar
    39   25   26 ar
    40   25   42 1
    41   26   27 ar
    42   26   43 1
    43   27   28 ar
    44   27   30 1
    45   28   29 ar
    46   28   44 1
    47   29   45 1
@<TRIPOS>MOLECULE
ZINC55216266
   41    43     0     0     0
SMALL
USER_CHARGES

@<TRIPOS>ATOM
      1 C1         -0.0692    1.8099   -0.0154 C.3       1 <0>        -0.6362
      2 S1         -0.0349   -0.0037   -0.0196 S.o2      1 <0>         2.5262
      3 O1          0.7964   -0.4799    1.0299 O.2       1 <0>        -1.0291
      4 O2         -1.3483   -0.5177   -0.1933 O.2       1 <0>        -1.0299
      5 N1          0.7657   -0.4111   -1.4108 N.2       1 <0>        -1.0980
      6 C2          0.9719   -1.7579   -1.7308 C.ar      1 <0>         0.2699
      7 C3          0.4986   -2.7533   -0.8819 C.ar      1 <0>        -0.2092
      8 C4          0.6973   -4.0839   -1.1895 C.ar      1 <0>        -0.0989
      9 C5          1.3708   -4.4382   -2.3488 C.ar      1 <0>         0.0564
     10 C6          1.8500   -3.4417   -3.2090 C.ar      1 <0>        -0.1292
     11 C7          1.6411   -2.0966   -2.8939 C.ar      1 <0>        -0.1404
     12 C8          2.5674   -3.8108   -4.4439 C.2       1 <0>         0.5679
     13 O3          2.7440   -4.9824   -4.7174 O.2       1 <0>        -0.5106
     14 N2          3.0271   -2.8495   -5.2692 N.am      1 <0>        -0.6764
     15 C9          3.7901   -3.1952   -6.3882 C.ar      1 <0>         0.1713
     16 C10         3.5100   -4.3648   -7.0847 C.ar      1 <0>        -0.1257
     17 C11         4.2614   -4.7077   -8.1887 C.ar      1 <0>        -0.0701
     18 C12         5.3021   -3.8800   -8.6065 C.ar      1 <0>        -0.0495
     19 C13         5.5809   -2.7072   -7.9069 C.ar      1 <0>        -0.0727
     20 C14         4.8240   -2.3657   -6.8063 C.ar      1 <0>        -0.1513
     21 C15         6.1124   -4.2472   -9.7942 C.2       1 <0>         0.1278
     22 C16         7.1913   -3.5107  -10.3213 C.2       1 <0>        -0.2617
     23 C17         7.6601   -4.1769  -11.3989 C.2       1 <0>         0.0557
     24 N3          6.9149   -5.2919  -11.5564 N.pl3     1 <0>        -0.4792
     25 H1          7.0281   -5.9587  -12.2518 H         1 <0>         0.4387
     26 N4          5.9537   -5.3216  -10.5380 N.2       1 <0>        -0.2885
     27 O4          1.5656   -5.7477   -2.6492 O.3       1 <0>        -0.4817
     28 H2          0.9514    2.1926   -0.0201 H         1 <0>         0.1157
     29 H3         -0.5946    2.1654   -0.9018 H         1 <0>         0.1157
     30 H4         -0.5850    2.1615    0.8781 H         1 <0>         0.1019
     31 H5         -0.0267   -2.4834    0.0224 H         1 <0>         0.1109
     32 H6          0.3277   -4.8513   -0.5254 H         1 <0>         0.1172
     33 H7          2.0046   -1.3231   -3.5543 H         1 <0>         0.1193
     34 H8          2.8284   -1.9178   -5.0866 H         1 <0>         0.4147
     35 H9          2.7035   -5.0059   -6.7606 H         1 <0>         0.1436
     36 H10         4.0439   -5.6171   -8.7292 H         1 <0>         0.1289
     37 H11         6.3871   -2.0647   -8.2288 H         1 <0>         0.1286
     38 H12         5.0373   -1.4552   -6.2661 H         1 <0>         0.1311
     39 H13         7.5750   -2.5788   -9.9332 H         1 <0>         0.1499
     40 H14         8.4856   -3.8713  -12.0246 H         1 <0>         0.1765
     41 H15         0.8566   -6.1398   -3.1770 H         1 <0>         0.3701
@<TRIPOS>BOND
     1    1    2 1
     2    1   28 1
     3    1   29 1
     4    1   30 1
     5    2    3 2
     6    2    4 2
     7    2    5 1
     8    5    6 1
     9    6   11 ar
    10    6    7 ar
    11    7    8 ar
    12    7   31 1
    13    8    9 ar
    14    8   32 1
    15    9   10 ar
    16    9   27 1
    17   10   11 ar
    18   10   12 1
    19   11   33 1
    20   12   13 2
    21   12   14 am
    22   14   15 1
    23   14   34 1
    24   15   20 ar
    25   15   16 ar
    26   16   17 ar
    27   16   35 1
    28   17   18 ar
    29   17   36 1
    30   18   19 ar
    31   18   21 1
    32   19   20 ar
    33   19   37 1
    34   20   38 1
    35   21   26 2
    36   21   22 1
    37   22   23 2
    38   22   39 1
    39   23   24 1
    40   23   40 1
    41   24   25 1
    42   24   26 1
    43   27   41 1
@<TRIPOS>MOLECULE
ZINC65741803
   52    56     0     0     0
SMALL
USER_CHARGES

@<TRIPOS>ATOM
      1 C1          0.1575    1.3761    0.6443 C.ar      1 <0>        -0.1105
      2 C2          1.1646    2.1035    0.0468 C.ar      1 <0>        -0.0877
      3 C3          2.2126    1.4395   -0.5881 C.ar      1 <0>        -0.1072
      4 C4          2.2366    0.0273   -0.6155 C.ar      1 <0>        -0.0985
      5 C5          1.2038   -0.6940   -0.0024 C.ar      1 <0>         0.1783
      6 C6          0.1739   -0.0102    0.6217 C.ar      1 <0>        -0.1260
      7 N1          1.2127   -2.0902   -0.0207 N.am      1 <0>        -0.6328
      8 C7          0.0558   -2.7729    0.0885 C.2       1 <0>         0.5047
      9 O1         -1.0008   -2.1775    0.1020 O.2       1 <0>        -0.5401
     10 C8          0.0750   -4.2761    0.1937 C.3       1 <0>         0.1014
     11 N2         -1.2979   -4.7757    0.3013 N.am      1 <0>        -0.7146
     12 C9         -1.5269   -6.0997    0.4069 C.2       1 <0>         0.5234
     13 O2         -0.5964   -6.8775    0.4129 O.2       1 <0>        -0.5384
     14 C10        -2.9393   -6.6136    0.5176 C.3       1 <0>        -0.0662
     15 C11        -3.6005   -6.0235    1.7647 C.3       1 <0>        -0.1022
     16 C12        -5.0344   -6.5452    1.8771 C.3       1 <0>        -0.0834
     17 C13        -5.0148   -8.0714    1.9839 C.3       1 <0>        -0.1092
     18 C14        -4.3536   -8.6615    0.7368 C.3       1 <0>        -0.0864
     19 C15        -2.9197   -8.1398    0.6244 C.3       1 <0>        -0.0870
     20 C16        -5.1458   -8.2473   -0.5049 C.3       1 <0>        -0.1094
     21 C17        -5.1653   -6.7212   -0.6118 C.3       1 <0>        -0.0836
     22 C18        -5.8266   -6.1310    0.6354 C.3       1 <0>        -0.1098
     23 C19        -3.7315   -6.1994   -0.7241 C.3       1 <0>        -0.1030
     24 C20         3.3510   -0.6422   -1.2909 C.2       1 <0>         0.3992
     25 O3          3.4028   -1.9978   -1.3350 O.3       1 <0>        -0.7059
     26 N3          4.2932    0.0656   -1.8502 N.2       1 <0>        -0.4059
     27 N4          4.2931    1.4607   -1.8373 N.am      1 <0>        -0.5142
     28 H1          5.0196    1.9366   -2.2692 H         1 <0>         0.4178
     29 C21         3.3100    2.1659   -1.2404 C.2       1 <0>         0.5097
     30 O4          3.3318    3.3842   -1.2428 O.2       1 <0>        -0.5821
     31 H2         -0.6516    1.8921    1.1399 H         1 <0>         0.1270
     32 H3          1.1414    3.1830    0.0702 H         1 <0>         0.1328
     33 H4         -0.6241   -0.5622    1.0958 H         1 <0>         0.1460
     34 H5          2.0515   -2.5687   -0.1119 H         1 <0>         0.4328
     35 H6          0.5461   -4.6966   -0.6948 H         1 <0>         0.1051
     36 H7          0.6394   -4.5712    1.0783 H         1 <0>         0.1023
     37 H8         -2.0422   -4.1537    0.2965 H         1 <0>         0.4105
     38 H9         -3.0361   -6.3186    2.6493 H         1 <0>         0.0682
     39 H10        -3.6144   -4.9362    1.6886 H         1 <0>         0.0693
     40 H11        -5.5054   -6.1248    2.7656 H         1 <0>         0.0735
     41 H12        -4.4505   -8.3665    2.8685 H         1 <0>         0.0625
     42 H13        -6.0364   -8.4431    2.0640 H         1 <0>         0.0623
     43 H14        -4.3397   -9.7488    0.8129 H         1 <0>         0.0726
     44 H15        -2.4487   -8.5602   -0.2641 H         1 <0>         0.0698
     45 H16        -2.3554   -8.4349    1.5090 H         1 <0>         0.0695
     46 H17        -4.6747   -8.6678   -1.3934 H         1 <0>         0.0629
     47 H18        -6.1673   -8.6190   -0.4249 H         1 <0>         0.0623
     48 H19        -5.7297   -6.4261   -1.4964 H         1 <0>         0.0738
     49 H20        -6.8481   -6.5028    0.7154 H         1 <0>         0.0632
     50 H21        -5.8405   -5.0438    0.5593 H         1 <0>         0.0646
     51 H22        -3.7454   -5.1122   -0.8002 H         1 <0>         0.0695
     52 H23        -3.2604   -6.6198   -1.6126 H         1 <0>         0.0688
@<TRIPOS>BOND
     1    1    6 ar
     2    1    2 ar
     3    1   31 1
     4    2    3 ar
     5    2   32 1
     6    3   29 1
     7    3    4 ar
     8    4    5 ar
     9    4   24 1
    10    5    6 ar
    11    5    7 1
    12    6   33 1
    13    7    8 am
    14    7   34 1
    15    8    9 2
    16    8   10 1
    17   10   11 1
    18   10   35 1
    19   10   36 1
    20   11   12 am
    21   11   37 1
    22   12   13 2
    23   12   14 1
    24   14   19 1
    25   14   23 1
    26   14   15 1
    27   15   16 1
    28   15   38 1
    29   15   39 1
    30   16   22 1
    31   16   17 1
    32   16   40 1
    33   17   18 1
    34   17   41 1
    35   17   42 1
    36   18   19 1
    37   18   20 1
    38   18   43 1
    39   19   44 1
    40   19   45 1
    41   20   21 1
    42   20   46 1
    43   20   47 1
    44   21   22 1
    45   21   23 1
    46   21   48 1
    47   22   49 1
    48   22   50 1
    49   23   51 1
    50   23   52 1
    51   24   25 1
    52   24   26 2
    53   26   27 1
    54   27   28 1
    55   27   29 am
    56   29   30 2
@<TRIPOS>MOLECULE
ZINC05273543
   47    48     0     0     0
SMALL
USER_CHARGES
3,4,5-trihydroxy-2-(hydroxymethyl)-6-(3-phenyl-1-sulfooxyimino-propyl)sulfanyl-tetrahydropyran
@<TRIPOS>ATOM
      1 C1          3.2107    1.8466   -0.0798 C.ar      1 <0>        -0.1289
      2 C2          1.9287    1.3907    0.1643 C.ar      1 <0>        -0.1193
      3 C3          1.6652    0.0337    0.1602 C.ar      1 <0>        -0.1108
      4 C4          2.6837   -0.8674   -0.0880 C.ar      1 <0>        -0.0733
      5 C5          3.9656   -0.4115   -0.3326 C.ar      1 <0>        -0.1167
      6 C6          4.2289    0.9455   -0.3294 C.ar      1 <0>        -0.1213
      7 C7          2.3967   -2.3468   -0.0915 C.3       1 <0>        -0.0818
      8 C8          2.0084   -2.7877   -1.5043 C.3       1 <0>        -0.0583
      9 C9          1.7214   -4.2671   -1.5077 C.2       1 <0>         0.1156
     10 N1          1.8242   -4.9481   -0.4135 N.2       1 <0>        -0.1948
     11 O1          1.4481   -6.3131   -0.3912 O.3       1 <0>        -0.6585
     12 S1          1.6246   -6.9817    0.9646 S.o2      1 <0>         2.7832
     13 O2          1.4066   -8.3714    0.7636 O.2       1 <0>        -1.0612
     14 O3          2.8314   -6.4717    1.5150 O.2       1 <0>        -1.0737
     15 S2          1.2456   -5.0687   -3.0030 S.3       1 <0>        -0.0869
     16 C10         1.3681   -3.6797   -4.1570 C.3       1 <0>         0.0510
     17 H1          2.2858   -3.1249   -3.9620 H         1 <0>         0.1343
     18 C11         1.3868   -4.2093   -5.5932 C.3       1 <0>         0.0705
     19 H2          1.5013   -3.3765   -6.2871 H         1 <0>         0.0954
     20 C12         0.0688   -4.9357   -5.8785 C.3       1 <0>         0.0792
     21 H3         -0.0227   -5.7980   -5.2180 H         1 <0>         0.0823
     22 C13        -1.0964   -3.9732   -5.6290 C.3       1 <0>         0.0939
     23 H4         -2.0408   -4.4971   -5.7765 H         1 <0>         0.0834
     24 C14        -1.0192   -3.4527   -4.1913 C.3       1 <0>         0.0833
     25 H5         -1.1242   -4.2862   -3.4968 H         1 <0>         0.1048
     26 O4          0.2430   -2.8157   -3.9839 O.3       1 <0>        -0.3298
     27 C15        -2.1450   -2.4444   -3.9526 C.3       1 <0>         0.0938
     28 O5         -2.1440   -2.0454   -2.5805 O.3       1 <0>        -0.5617
     29 O6         -1.0121   -2.8752   -6.5396 O.3       1 <0>        -0.5484
     30 O7          0.0459   -5.3715   -7.2393 O.3       1 <0>        -0.5593
     31 O8          2.4775   -5.1187   -5.7527 O.3       1 <0>        -0.5489
     32 H6          3.4165    2.9068   -0.0769 H         1 <0>         0.1170
     33 H7          1.1321    2.0948    0.3538 H         1 <0>         0.1193
     34 H8          0.6637   -0.3225    0.3513 H         1 <0>         0.1246
     35 H9          4.7614   -1.1155   -0.5259 H         1 <0>         0.1219
     36 H10         5.2304    1.3017   -0.5202 H         1 <0>         0.1185
     37 H11         3.2862   -2.8903    0.2271 H         1 <0>         0.0887
     38 H12         1.5762   -2.5594    0.5938 H         1 <0>         0.0897
     39 H13         1.1189   -2.2442   -1.8228 H         1 <0>         0.1156
     40 H14         2.8289   -2.5751   -2.1896 H         1 <0>         0.0904
     41 H15        -1.9901   -1.5704   -4.5853 H         1 <0>         0.0652
     42 H16        -3.1025   -2.9045   -4.1965 H         1 <0>         0.0624
     43 H17        -2.8333   -1.4053   -2.3565 H         1 <0>         0.3814
     44 H18        -1.0546   -3.1323   -7.4708 H         1 <0>         0.3850
     45 H19         0.7576   -5.9848   -7.4679 H         1 <0>         0.3934
     46 H20         3.3448   -4.7263   -5.5824 H         1 <0>         0.3875
     47 O9          0.4962   -6.4894    1.8595 O.3       1 <0>        -1.0979
@<TRIPOS>BOND
     1    1    6 ar
     2    1    2 ar
     3    1   32 1
     4    2    3 ar
     5    2   33 1
     6    3    4 ar
     7    3   34 1
     8    4    5 ar
     9    4    7 1
    10    5    6 ar
    11    5   35 1
    12    6   36 1
    13    7    8 1
    14    7   37 1
    15    7   38 1
    16    8    9 1
    17    8   39 1
    18    8   40 1
    19    9   10 2
    20    9   15 1
    21   10   11 1
    22   11   12 1
    23   12   13 2
    24   12   14 2
    25   12   47 1
    26   15   16 1
    27   16   17 1
    28   16   26 1
    29   16   18 1
    30   18   19 1
    31   18   20 1
    32   18   31 1
    33   20   21 1
    34   20   22 1
    35   20   30 1
    36   22   23 1
    37   22   24 1
    38   22   29 1
    39   24   25 1
    40   24   26 1
    41   24   27 1
    42   27   28 1
    43   27   41 1
    44   27   42 1
    45   28   43 1
    46   29   44 1
    47   30   45 1
    48   31   46 1
@<TRIPOS>MOLECULE
ZINC27644116
   48    48     0     0     0
SMALL
USER_CHARGES
(2R)-3-acetamido-2-[(2R,3S,4R)-3-hydroxy-2-[(1R)-1-hydroxy-2-methyl-propyl]-4-methyl-5-oxo-pyrrolidine-2-carbonyl]sulfanyl-propanoic acid
@<TRIPOS>ATOM
      1 C1          1.7449    2.9373    4.4446 C.3       1 <0>        -0.1301
      2 C2          1.7089    2.7919    2.9220 C.3       1 <0>        -0.1194
      3 H1          1.1998    3.6869    2.5350 H         1 <0>         0.1251
      4 C3          1.0154    1.4702    2.5179 C.3       1 <0>         0.1292
      5 H2         -0.0741    1.5199    2.3750 H         1 <0>         0.0924
      6 C4          1.8416    1.0456    1.2836 C.3       1 <0>         0.1168
      7 N1          3.1575    1.6715    1.4590 N.am      1 <0>        -0.7056
      8 C5          3.1109    2.6593    2.3694 C.2       1 <0>         0.5437
      9 O1          4.0554    3.3448    2.6995 O.2       1 <0>        -0.5267
     10 C6          1.1793    1.5558    0.0022 C.3       1 <0>         0.1299
     11 H3          0.1450    1.1916   -0.0844 H         1 <0>         0.0675
     12 C7          1.2333    3.0846   -0.0260 C.3       1 <0>        -0.1346
     13 C8          2.6504    3.5384   -0.3818 C.3       1 <0>        -0.1656
     14 C9          0.2511    3.6103   -1.0748 C.3       1 <0>        -0.1482
     15 O2          1.8729    1.0336   -1.1329 O.3       1 <0>        -0.5732
     16 C10         1.9796   -0.4543    1.2369 C.2       1 <0>         0.3125
     17 O3          1.2122   -1.1136    0.5672 O.2       1 <0>        -0.3943
     18 S1          3.2191   -1.2281    2.1290 S.3       1 <0>        -0.0559
     19 C11         2.8899   -2.9536    1.6928 C.3       1 <0>        -0.1460
     20 H4          1.8821   -3.3637    1.8545 H         1 <0>         0.1050
     21 C12         3.8224   -3.8680    2.4899 C.3       1 <0>         0.1530
     22 N2          3.5892   -3.6735    3.9231 N.am      1 <0>        -0.7369
     23 C13         4.3021   -4.3787    4.8237 C.2       1 <0>         0.5056
     24 O4          5.1367   -5.1742    4.4475 O.2       1 <0>        -0.5548
     25 C14         4.0622   -4.1787    6.2979 C.3       1 <0>        -0.1734
     26 C15         3.1298   -3.1536    0.2186 C.2       1 <0>         0.4705
     27 O5          2.1975   -3.3534   -0.5236 O.co2     1 <0>        -0.6064
     28 O6          4.3793   -3.1099   -0.2701 O.co2     1 <0>        -0.7440
     29 O7          1.1185    0.4990    3.5610 O.3       1 <0>        -0.5779
     30 H5          0.7183    3.0324    4.8282 H         1 <0>         0.0642
     31 H6          2.3215    3.8346    4.7137 H         1 <0>         0.0636
     32 H7          2.2208    2.0495    4.8865 H         1 <0>         0.0731
     33 H8          4.0191    1.3130    0.8766 H         1 <0>         0.4487
     34 H9          0.9595    3.4795    0.9635 H         1 <0>         0.0792
     35 H10         2.6892    4.6375   -0.4021 H         1 <0>         0.0452
     36 H11         2.9243    3.1435   -1.3713 H         1 <0>         0.0617
     37 H12         3.3566    3.1604    0.3721 H         1 <0>         0.0811
     38 H13         0.2899    4.7094   -1.0951 H         1 <0>         0.0581
     39 H14        -0.7678    3.2840   -0.8190 H         1 <0>         0.0549
     40 H15         0.5251    3.2154   -2.0642 H         1 <0>         0.0561
     41 H16         1.5390    1.2926   -2.1485 H         1 <0>         0.4053
     42 H17         3.6223   -4.9167    2.2248 H         1 <0>         0.0765
     43 H18         4.8680   -3.6228    2.2519 H         1 <0>         0.0852
     44 H19         2.8323   -2.9519    4.2642 H         1 <0>         0.4181
     45 H20         4.7326   -4.8361    6.8710 H         1 <0>         0.0878
     46 H21         3.0166   -4.4240    6.5358 H         1 <0>         0.0847
     47 H22         4.2623   -3.1300    6.5630 H         1 <0>         0.0870
     48 H23         0.6743   -0.4987    3.4294 H         1 <0>         0.4115
@<TRIPOS>BOND
     1    1    2 1
     2    1   30 1
     3    1   31 1
     4    1   32 1
     5    2    3 1
     6    2    8 1
     7    2    4 1
     8    4    5 1
     9    4    6 1
    10    4   29 1
    11    6    7 1
    12    6   10 1
    13    6   16 1
    14    7    8 am
    15    7   33 1
    16    8    9 2
    17   10   11 1
    18   10   12 1
    19   10   15 1
    20   12   13 1
    21   12   14 1
    22   12   34 1
    23   13   35 1
    24   13   36 1
    25   13   37 1
    26   14   38 1
    27   14   39 1
    28   14   40 1
    29   15   41 1
    30   16   17 2
    31   16   18 1
    32   18   19 1
    33   19   20 1
    34   19   21 1
    35   19   26 1
    36   21   22 1
    37   21   42 1
    38   21   43 1
    39   22   23 am
    40   22   44 1
    41   23   24 2
    42   23   25 1
    43   25   45 1
    44   25   46 1
    45   25   47 1
    46   26   27 2
    47   26   28 1
    48   29   48 1
@<TRIPOS>MOLECULE
ZINC12153723
   45    46     0     0     0
SMALL
USER_CHARGES

@<TRIPOS>ATOM
      1 C1         -0.0173    1.4248    0.0099 C.3       1 <0>         0.0230
      2 O1          0.0021   -0.0041    0.0020 O.3       1 <0>        -0.3085
      3 C2          0.6263   -0.6188    1.0422 C.ar      1 <0>         0.0989
      4 C3          1.1996    0.1358    2.0465 C.ar      1 <0>        -0.1724
      5 C4          1.8412   -0.5005    3.1156 C.ar      1 <0>        -0.0401
      6 C5          1.8980   -1.8984    3.1605 C.ar      1 <0>        -0.1172
      7 C6          1.3233   -2.6432    2.1544 C.ar      1 <0>        -0.1071
      8 C7          0.6821   -2.0111    1.0972 C.ar      1 <0>         0.0838
      9 O2          0.1125   -2.7510    0.1109 O.3       1 <0>        -0.4861
     10 C8          2.4538    0.2968    4.1873 C.2       1 <0>        -0.0221
     11 C9          3.0726   -0.3194    5.2182 C.2       1 <0>        -0.1719
     12 C10         3.6636    0.4498    6.2522 C.2       1 <0>         0.4913
     13 O3          3.6136    1.6646    6.2112 O.2       1 <0>        -0.5063
     14 O4          4.2815   -0.1656    7.2818 O.3       1 <0>        -0.3024
     15 C11         4.8549    0.6715    8.2882 C.3       1 <0>         0.1077
     16 H1          5.1681    1.6149    7.8410 H         1 <0>         0.0889
     17 C12         6.0680   -0.0288    8.9036 C.3       1 <0>        -0.0877
     18 C13         5.6284   -1.3530    9.5313 C.3       1 <0>         0.0703
     19 C14         4.5894   -1.0808   10.6210 C.3       1 <0>        -0.1583
     20 C15         3.3763   -0.3806   10.0056 C.3       1 <0>         0.0800
     21 H2          2.9390   -1.0190    9.2379 H         1 <0>         0.0729
     22 C16         3.8160    0.9437    9.3779 C.3       1 <0>         0.1020
     23 H3          4.2533    1.5821   10.1455 H         1 <0>         0.0711
     24 O5          2.6829    1.5977    8.8030 O.3       1 <0>        -0.5529
     25 O6          2.4059   -0.1263   11.0233 O.3       1 <0>        -0.5762
     26 C17         6.8233   -2.0428   10.1376 C.2       1 <0>         0.4778
     27 O7          7.4600   -1.4950   11.0213 O.co2     1 <0>        -0.6921
     28 O8          7.1533   -3.1486    9.7443 O.co2     1 <0>        -0.6836
     29 O9          5.0550   -2.1901    8.5250 O.3       1 <0>        -0.5364
     30 H4          1.0053    1.8021    0.0021 H         1 <0>         0.0570
     31 H5         -0.5445    1.7859   -0.8732 H         1 <0>         0.1014
     32 H6         -0.5275    1.7763    0.9067 H         1 <0>         0.0574
     33 H7          1.1534    1.2141    2.0070 H         1 <0>         0.1382
     34 H8          2.3925   -2.3928    3.9836 H         1 <0>         0.1405
     35 H9          1.3677   -3.7217    2.1901 H         1 <0>         0.1416
     36 H10         0.7083   -2.9525   -0.6236 H         1 <0>         0.3876
     37 H11         2.4094    1.3752    4.1509 H         1 <0>         0.1385
     38 H12         3.1170   -1.3978    5.2547 H         1 <0>         0.1421
     39 H13         6.8082   -0.2227    8.1273 H         1 <0>         0.0813
     40 H14         6.5053    0.6096    9.6713 H         1 <0>         0.1014
     41 H15         4.2762   -2.0242   11.0682 H         1 <0>         0.0636
     42 H16         5.0268   -0.4424   11.3886 H         1 <0>         0.0812
     43 H17         1.9824    1.8015    9.4378 H         1 <0>         0.3782
     44 H18         2.0817   -0.9229   11.4654 H         1 <0>         0.3792
     45 H19         4.7533   -3.0485    8.8524 H         1 <0>         0.3643
@<TRIPOS>BOND
     1    1    2 1
     2    1   30 1
     3    1   31 1
     4    1   32 1
     5    2    3 1
     6    3    8 ar
     7    3    4 ar
     8    4    5 ar
     9    4   33 1
    10    5    6 ar
    11    5   10 1
    12    6    7 ar
    13    6   34 1
    14    7    8 ar
    15    7   35 1
    16    8    9 1
    17    9   36 1
    18   10   11 2
    19   10   37 1
    20   11   12 1
    21   11   38 1
    22   12   13 2
    23   12   14 1
    24   14   15 1
    25   15   16 1
    26   15   22 1
    27   15   17 1
    28   17   18 1
    29   17   39 1
    30   17   40 1
    31   18   19 1
    32   18   26 1
    33   18   29 1
    34   19   20 1
    35   19   41 1
    36   19   42 1
    37   20   21 1
    38   20   22 1
    39   20   25 1
    40   22   23 1
    41   22   24 1
    42   24   43 1
    43   25   44 1
    44   26   27 2
    45   26   28 1
    46   29   45 1
@<TRIPOS>MOLECULE
ZINC43772518
   48    48     0     0     0
SMALL
USER_CHARGES

@<TRIPOS>ATOM
      1 C1         -0.6248    0.3527   -1.0822 C.3       1 <0>        -0.1378
      2 C2         -0.6034   -1.0933   -0.5828 C.3       1 <0>        -0.1625
      3 H1         -0.2480   -1.7616   -1.3671 H         1 <0>         0.1284
      4 C3         -2.0099   -1.5212   -0.1035 C.3       1 <0>         0.1096
      5 H2         -2.5297   -2.0877   -0.8762 H         1 <0>         0.0998
      6 C4         -1.6706   -2.4195    1.1066 C.3       1 <0>         0.1170
      7 N1         -0.3618   -1.9568    1.5829 N.am      1 <0>        -0.7045
      8 C5          0.2648   -1.2149    0.6501 C.2       1 <0>         0.5380
      9 O1          1.3627   -0.7159    0.7785 O.2       1 <0>        -0.5206
     10 C6         -2.7235   -2.2500    2.2036 C.3       1 <0>         0.1428
     11 H3         -2.5670   -3.0021    2.9768 H         1 <0>         0.0950
     12 C7         -2.6002   -0.8540    2.8175 C.3       1 <0>        -0.1353
     13 C8         -3.7803   -0.6047    3.7589 C.3       1 <0>        -0.1386
     14 C9         -1.2912   -0.7564    3.6036 C.3       1 <0>        -0.1671
     15 O2         -4.0274   -2.4094    1.6410 O.3       1 <0>        -0.5346
     16 C10        -1.5895   -3.8622    0.6787 C.2       1 <0>         0.2785
     17 O3         -2.5542   -4.5872    0.8039 O.2       1 <0>        -0.3799
     18 S1         -0.1804   -4.4593    0.0359 S.3       1 <0>        -0.0919
     19 C11        -0.5612   -6.1973   -0.3177 C.3       1 <0>        -0.1479
     20 H4         -0.9229   -6.6818    0.5892 H         1 <0>         0.0957
     21 C12         0.7032   -6.9074   -0.8056 C.3       1 <0>         0.1549
     22 N2          1.7352   -6.8349    0.2317 N.am      1 <0>        -0.7273
     23 C13         2.9422   -7.3965    0.0219 C.2       1 <0>         0.5057
     24 O4          3.1741   -7.9620   -1.0256 O.2       1 <0>        -0.5506
     25 C14         4.0038   -7.3218    1.0890 C.3       1 <0>        -0.1689
     26 C15        -1.6227   -6.2720   -1.3847 C.2       1 <0>         0.5056
     27 O5         -1.3359   -6.0415   -2.5471 O.co2     1 <0>        -0.6735
     28 O6         -2.7683   -6.5628   -1.0857 O.co2     1 <0>        -0.6574
     29 O7         -2.7795   -0.3870    0.3004 O.3       1 <0>        -0.5396
     30 H5          0.3800    0.6474   -1.3849 H         1 <0>         0.0737
     31 H6         -1.2993    0.4328   -1.9347 H         1 <0>         0.0683
     32 H7         -0.9703    1.0081   -0.2827 H         1 <0>         0.0672
     33 H8          0.0058   -2.1605    2.4571 H         1 <0>         0.4183
     34 H9         -2.6041   -0.1065    2.0242 H         1 <0>         0.1192
     35 H10        -3.7099   -1.2755    4.6152 H         1 <0>         0.0468
     36 H11        -3.7576    0.4289    4.1042 H         1 <0>         0.0492
     37 H12        -4.7140   -0.7901    3.2280 H         1 <0>         0.0627
     38 H13        -0.4571   -0.6551    2.9093 H         1 <0>         0.0750
     39 H14        -1.3254    0.1133    4.2598 H         1 <0>         0.0528
     40 H15        -1.1586   -1.6579    4.2019 H         1 <0>         0.0488
     41 H16        -4.2359   -1.7719    0.9444 H         1 <0>         0.3752
     42 H17         0.4744   -7.9517   -1.0180 H         1 <0>         0.0825
     43 H18         1.0650   -6.4230   -1.7125 H         1 <0>         0.0879
     44 H19         1.5497   -6.3826    1.0696 H         1 <0>         0.3988
     45 H20         3.6149   -6.7800    1.9511 H         1 <0>         0.0735
     46 H21         4.2868   -8.3302    1.3911 H         1 <0>         0.0912
     47 H22         4.8774   -6.8014    0.6966 H         1 <0>         0.0924
     48 H23        -2.9367    0.2537   -0.4066 H         1 <0>         0.3833
@<TRIPOS>BOND
     1    1    2 1
     2    1   30 1
     3    1   31 1
     4    1   32 1
     5    2    3 1
     6    2    8 1
     7    2    4 1
     8    4    5 1
     9    4    6 1
    10    4   29 1
    11    6    7 1
    12    6   10 1
    13    6   16 1
    14    7    8 am
    15    7   33 1
    16    8    9 2
    17   10   11 1
    18   10   12 1
    19   10   15 1
    20   12   13 1
    21   12   14 1
    22   12   34 1
    23   13   35 1
    24   13   36 1
    25   13   37 1
    26   14   38 1
    27   14   39 1
    28   14   40 1
    29   15   41 1
    30   16   17 2
    31   16   18 1
    32   18   19 1
    33   19   20 1
    34   19   21 1
    35   19   26 1
    36   21   22 1
    37   21   42 1
    38   21   43 1
    39   22   23 am
    40   22   44 1
    41   23   24 2
    42   23   25 1
    43   25   45 1
    44   25   46 1
    45   25   47 1
    46   26   27 2
    47   26   28 1
    48   29   48 1
@<TRIPOS>MOLECULE
ZINC27491075
   49    49     0     0     0
SMALL
USER_CHARGES

@<TRIPOS>ATOM
      1 C1          1.0969    1.5226   -0.8512 C.3       1 <0>        -0.1676
      2 C2          1.1173    0.0158   -0.8595 C.2       1 <0>         0.5100
      3 O1          2.1391   -0.5783   -0.5878 O.2       1 <0>        -0.5696
      4 N1          0.0001   -0.6716   -1.1688 N.am      1 <0>        -0.6654
      5 C3          0.0199   -2.1365   -1.1769 C.3       1 <0>         0.1704
      6 H1          0.6927   -2.4959   -0.3982 H         1 <0>         0.0995
      7 C4          0.5047   -2.6343   -2.5420 C.3       1 <0>         0.0810
      8 H2          1.4872   -2.2135   -2.7557 H         1 <0>         0.0991
      9 C5         -0.4893   -2.1876   -3.6184 C.3       1 <0>         0.0558
     10 H3         -0.1815   -2.5846   -4.5858 H         1 <0>         0.0887
     11 C6         -1.8820   -2.7178   -3.2676 C.3       1 <0>         0.0825
     12 H4         -1.8658   -3.8077   -3.2642 H         1 <0>         0.0756
     13 O2         -2.2591   -2.2428   -1.9737 O.3       1 <0>        -0.4014
     14 C7         -1.3921   -2.6687   -0.9188 C.3       1 <0>         0.2477
     15 H5         -1.3694   -3.7579   -0.8847 H         1 <0>         0.0012
     16 N2         -1.8837   -2.1497    0.3600 N.2       1 <0>        -0.6531
     17 N3         -3.1298   -2.4923    0.8024 N.4       1 <0>        -0.0065
     18 N4         -3.3659   -1.8932    2.0072 N.2       1 <0>        -0.9375
     19 C8         -2.8919   -2.2259   -4.3064 C.3       1 <0>         0.0790
     20 O3         -4.1679   -2.8142   -4.0461 O.3       1 <0>        -0.3392
     21 C9         -5.1717   -2.4831   -4.8734 C.2       1 <0>         0.4557
     22 O4         -4.9737   -1.7190   -5.7882 O.2       1 <0>        -0.5174
     23 C10        -6.5459   -3.0643   -4.6611 C.3       1 <0>        -0.1448
     24 O5         -0.5211   -0.7601   -3.6763 O.3       1 <0>        -0.3195
     25 C11        -0.8017   -0.2045   -4.8655 C.2       1 <0>         0.4531
     26 O6         -1.0133   -0.9069   -5.8256 O.2       1 <0>        -0.5121
     27 C12        -0.8528    1.2953   -5.0032 C.3       1 <0>        -0.1461
     28 O7          0.5882   -4.0608   -2.5285 O.3       1 <0>        -0.3292
     29 C13         1.5166   -4.6243   -3.3173 C.2       1 <0>         0.4540
     30 O8          2.2346   -3.9295   -3.9967 O.2       1 <0>        -0.5105
     31 C14         1.6636   -6.1237   -3.3554 C.3       1 <0>        -0.1446
     32 H6          1.3610    1.8950   -1.8410 H         1 <0>         0.0842
     33 H7          0.0986    1.8710   -0.5863 H         1 <0>         0.0806
     34 H8          1.8163    1.8917   -0.1202 H         1 <0>         0.0866
     35 H9         -0.8172   -0.1964   -1.3861 H         1 <0>         0.4109
     36 H10        -3.8202   -2.1859    0.1335 H         1 <0>         0.2403
     37 H11        -4.2112   -2.0342    2.4616 H         1 <0>         0.2418
     38 H12        -2.9735   -1.1405   -4.2481 H         1 <0>         0.0665
     39 H13        -2.5564   -2.5119   -5.3032 H         1 <0>         0.0835
     40 H14        -6.5307   -3.7260   -3.7951 H         1 <0>         0.0916
     41 H15        -7.2590   -2.2579   -4.4898 H         1 <0>         0.1039
     42 H16        -6.8418   -3.6294   -5.5450 H         1 <0>         0.1021
     43 H17         0.1364    1.6699   -5.2666 H         1 <0>         0.1044
     44 H18        -1.5632    1.5644   -5.7848 H         1 <0>         0.1025
     45 H19        -1.1684    1.7364   -4.0577 H         1 <0>         0.0973
     46 H20         0.9361   -6.5773   -2.6823 H         1 <0>         0.0938
     47 H21         1.4905   -6.4800   -4.3709 H         1 <0>         0.1041
     48 H22         2.6704   -6.3982   -3.0407 H         1 <0>         0.1062
     49 H23        -3.1855   -3.4941    0.9084 H         1 <0>         0.2110
@<TRIPOS>BOND
     1    1    2 1
     2    1   32 1
     3    1   33 1
     4    1   34 1
     5    2    3 2
     6    2    4 am
     7    4    5 1
     8    4   35 1
     9    5    6 1
    10    5   14 1
    11    5    7 1
    12    7    8 1
    13    7    9 1
    14    7   28 1
    15    9   10 1
    16    9   11 1
    17    9   24 1
    18   11   12 1
    19   11   13 1
    20   11   19 1
    21   13   14 1
    22   14   15 1
    23   14   16 1
    24   16   17 1
    25   17   18 1
    26   17   36 1
    27   17   49 1
    28   18   37 1
    29   19   20 1
    30   19   38 1
    31   19   39 1
    32   20   21 1
    33   21   22 2
    34   21   23 1
    35   23   40 1
    36   23   41 1
    37   23   42 1
    38   24   25 1
    39   25   26 2
    40   25   27 1
    41   27   43 1
    42   27   44 1
    43   27   45 1
    44   28   29 1
    45   29   30 2
    46   29   31 1
    47   31   46 1
    48   31   47 1
    49   31   48 1
@<TRIPOS>MOLECULE
ZINC01773992
   44    46     0     0     0
SMALL
USER_CHARGES
N,N'-bis(2-hydroxyethyl)-oxo-BLAHdisulfonamide
@<TRIPOS>ATOM
      1 C1          1.7645    4.9423   -0.9925 C.ar      1 <0>        -0.0838
      2 C2          0.7928    4.0183   -0.7131 C.ar      1 <0>        -0.0897
      3 C3         -0.2701    3.8548   -1.6173 C.ar      1 <0>         0.0893
      4 C4         -1.3359    2.9500   -1.4773 C.ar      1 <0>        -0.6986
      5 C5         -2.2912    2.9101   -2.4559 C.ar      1 <0>         0.1111
      6 C6         -2.2575    3.7195   -3.5913 C.ar      1 <0>        -0.7086
      7 C7         -1.2225    4.6184   -3.7685 C.ar      1 <0>         0.3215
      8 C8         -0.2589    4.6484   -2.7650 C.ar      1 <0>        -0.1422
      9 C9          0.7313    5.5967   -3.0604 C.ar      1 <0>        -0.1426
     10 C10         1.7574    5.7320   -2.1414 C.ar      1 <0>        -0.0088
     11 C11         0.3112    6.1688   -4.3451 C.2       1 <0>         0.5842
     12 O1          0.8950    7.0370   -4.9666 O.2       1 <0>        -0.4506
     13 N1         -0.8446    5.5586   -4.7187 N.am      1 <0>        -0.6603
     14 S1         -3.5337    3.5958   -4.7999 S.o2      1 <0>         2.6908
     15 O2         -2.8891    3.4861   -6.0615 O.2       1 <0>        -0.9462
     16 O3         -4.4496    2.6188   -4.3248 O.2       1 <0>        -0.9375
     17 N2         -4.3437    5.0403   -4.8062 N.pl3     1 <0>        -1.1075
     18 C12        -3.6561    6.2637   -5.2265 C.3       1 <0>         0.1040
     19 C13        -4.6877    7.3599   -5.5008 C.3       1 <0>         0.0708
     20 O4         -5.3557    7.7005   -4.2843 O.3       1 <0>        -0.5710
     21 S2         -1.4436    1.8957   -0.0696 S.o2      1 <0>         2.6974
     22 O5         -0.1725    1.2765    0.0722 O.2       1 <0>        -0.9468
     23 O6         -2.6435    1.1481   -0.2130 O.2       1 <0>        -0.9459
     24 N3         -1.6471    2.8677    1.2556 N.pl3     1 <0>        -1.1103
     25 C14        -2.8565    3.6840    1.3865 C.3       1 <0>         0.1141
     26 C15        -2.9732    4.1959    2.8236 C.3       1 <0>         0.0688
     27 O7         -1.8872    5.0816    3.1034 O.3       1 <0>        -0.5729
     28 H1          2.5750    5.0648   -0.2894 H         1 <0>         0.1504
     29 H2          0.8402    3.4284    0.1903 H         1 <0>         0.1512
     30 H3         -3.1120    2.2172   -2.3439 H         1 <0>         0.1714
     31 H4          2.5493    6.4459   -2.3137 H         1 <0>         0.1511
     32 H5         -1.3351    5.7517   -5.5330 H         1 <0>         0.4298
     33 H6         -5.2733    5.0762   -4.5317 H         1 <0>         0.4298
     34 H7         -2.9802    6.5904   -4.4362 H         1 <0>         0.0723
     35 H8         -3.0856    6.0664   -6.1340 H         1 <0>         0.0906
     36 H9         -4.1843    8.2414   -5.8979 H         1 <0>         0.0670
     37 H10        -5.4164    6.9996   -6.2269 H         1 <0>         0.0634
     38 H11        -6.0253    8.3911   -4.3833 H         1 <0>         0.3879
     39 H12        -0.9637    2.8995    1.9432 H         1 <0>         0.4243
     40 H13        -2.7991    4.5309    0.7027 H         1 <0>         0.0743
     41 H14        -3.7307    3.0798    1.1440 H         1 <0>         0.0982
     42 H15        -3.9166    4.7285    2.9441 H         1 <0>         0.0648
     43 H16        -2.9413    3.3526    3.5134 H         1 <0>         0.0593
     44 H17        -1.8971    5.4453    3.9994 H         1 <0>         0.3852
@<TRIPOS>BOND
     1    1   10 ar
     2    1    2 ar
     3    1   28 1
     4    2    3 ar
     5    2   29 1
     6    3    8 ar
     7    3    4 ar
     8    4    5 ar
     9    4   21 1
    10    5    6 ar
    11    5   30 1
    12    6    7 ar
    13    6   14 1
    14    7   13 1
    15    7    8 ar
    16    8    9 ar
    17    9   10 ar
    18    9   11 1
    19   10   31 1
    20   11   12 2
    21   11   13 am
    22   13   32 1
    23   14   15 2
    24   14   16 2
    25   14   17 1
    26   17   18 1
    27   17   33 1
    28   18   19 1
    29   18   34 1
    30   18   35 1
    31   19   20 1
    32   19   36 1
    33   19   37 1
    34   20   38 1
    35   21   22 2
    36   21   23 2
    37   21   24 1
    38   24   25 1
    39   24   39 1
    40   25   26 1
    41   25   40 1
    42   25   41 1
    43   26   27 1
    44   26   42 1
    45   26   43 1
    46   27   44 1
@<TRIPOS>MOLECULE
ZINC16957760
   47    49     0     0     0
SMALL
USER_CHARGES
(2E)-2-(tert-butylhydrazono)-2-[(1S,2R)-1,3-dioxo-4H-benzo[e][1,4]thiazin-2-yl]-N-(5-thioxo-1,2-dihydro-1,2,4-triazol-3-yl)acetamide
@<TRIPOS>ATOM
      1 C1          3.2825    2.1904    4.2924 C.3       1 <0>        -0.1617
      2 C2          1.8545    1.7889    4.6672 C.3       1 <0>         0.1832
      3 C3          1.7334    1.6972    6.1896 C.3       1 <0>        -0.1571
      4 C4          1.5277    0.4290    4.0468 C.3       1 <0>        -0.1601
      5 N1          0.9161    2.7942    4.1623 N.pl3     1 <0>        -0.5820
      6 N2          0.8440    3.0576    2.7882 N.2       1 <0>        -0.0915
      7 C5         -0.0637    3.8714    2.3274 C.2       1 <0>        -0.0159
      8 C6         -0.2213    4.0606    0.8406 C.3       1 <0>        -0.3885
      9 H1         -0.5063    5.0912    0.6292 H         1 <0>         0.1642
     10 C7         -1.2801    3.1236    0.3188 C.2       1 <0>         0.5346
     11 O1         -2.4009    3.5547    0.1485 O.2       1 <0>        -0.4991
     12 N3         -1.0424    1.8471    0.0362 N.am      1 <0>        -0.6567
     13 C8          0.1887    1.2037    0.0642 C.ar      1 <0>         0.2136
     14 C9          0.2289   -0.1890    0.0808 C.ar      1 <0>        -0.1608
     15 C10         1.4387   -0.8503    0.1022 C.ar      1 <0>        -0.0526
     16 C11         2.6235   -0.1368    0.1076 C.ar      1 <0>        -0.1455
     17 C12         2.5932    1.2459    0.0859 C.ar      1 <0>        -0.0089
     18 C13         1.3849    1.9096    0.0588 C.ar      1 <0>        -0.4740
     19 S1          1.3472    3.6744    0.0039 S.o       1 <0>         1.3886
     20 O2          1.2315    3.9728   -1.3805 O.2       1 <0>        -0.8162
     21 C14        -0.9292    4.6007    3.2528 C.2       1 <0>         0.5757
     22 O3         -0.8741    4.3710    4.4465 O.2       1 <0>        -0.5311
     23 N4         -1.7881    5.5274    2.7838 N.am      1 <0>        -0.6043
     24 C15        -2.5214    6.2872    3.6583 C.2       1 <0>         0.6028
     25 N5         -2.4793    6.2010    5.0211 N.pl3     1 <0>        -0.4827
     26 H2         -1.9320    5.5981    5.5483 H         1 <0>         0.4606
     27 N6         -3.3828    7.1600    5.5082 N.pl3     1 <0>        -0.4648
     28 H3         -3.5819    7.3497    6.4384 H         1 <0>         0.4618
     29 C16        -3.9233    7.7617    4.4285 C.2       1 <0>         0.4856
     30 S2         -5.0954    9.0090    4.4627 S.2       1 <0>        -0.5254
     31 N7         -3.3908    7.2211    3.3265 N.2       1 <0>        -0.5202
     32 H4          3.5154    3.1592    4.7344 H         1 <0>         0.0608
     33 H5          3.9807    1.4424    4.6680 H         1 <0>         0.0702
     34 H6          3.3688    2.2557    3.2078 H         1 <0>         0.0713
     35 H7          0.7161    1.4111    6.4566 H         1 <0>         0.0635
     36 H8          2.4317    0.9492    6.5653 H         1 <0>         0.0842
     37 H9          1.9663    2.6660    6.6316 H         1 <0>         0.0654
     38 H10         1.6140    0.4943    2.9622 H         1 <0>         0.0708
     39 H11         2.2259   -0.3190    4.4224 H         1 <0>         0.0699
     40 H12         0.5103    0.1429    4.3138 H         1 <0>         0.0551
     41 H13         0.3447    3.2775    4.7794 H         1 <0>         0.4109
     42 H14        -1.8084    1.3082   -0.2161 H         1 <0>         0.4175
     43 H15        -0.6920   -0.7532    0.0765 H         1 <0>         0.1300
     44 H16         1.4612   -1.9300    0.1152 H         1 <0>         0.1332
     45 H17         3.5694   -0.6576    0.1284 H         1 <0>         0.1350
     46 H18         3.5166    1.8060    0.0895 H         1 <0>         0.1382
     47 H19        -1.8875    5.6567    1.8277 H         1 <0>         0.4523
@<TRIPOS>BOND
     1    1    2 1
     2    1   32 1
     3    1   33 1
     4    1   34 1
     5    2    3 1
     6    2    4 1
     7    2    5 1
     8    3   35 1
     9    3   36 1
    10    3   37 1
    11    4   38 1
    12    4   39 1
    13    4   40 1
    14    5    6 1
    15    5   41 1
    16    6    7 2
    17    7    8 1
    18    7   21 1
    19    8    9 1
    20    8   19 1
    21    8   10 1
    22   10   11 2
    23   10   12 am
    24   12   13 1
    25   12   42 1
    26   13   18 ar
    27   13   14 ar
    28   14   15 ar
    29   14   43 1
    30   15   16 ar
    31   15   44 1
    32   16   17 ar
    33   16   45 1
    34   17   18 ar
    35   17   46 1
    36   18   19 1
    37   19   20 2
    38   21   22 2
    39   21   23 am
    40   23   24 1
    41   23   47 1
    42   24   31 2
    43   24   25 1
    44   25   26 1
    45   25   27 1
    46   27   28 1
    47   27   29 1
    48   29   30 2
    49   29   31 1
@<TRIPOS>MOLECULE
ZINC34782733
   50    52     0     0     0
SMALL
USER_CHARGES

@<TRIPOS>ATOM
      1 C1          2.6259   -0.4414   -0.9336 C.3       1 <0>        -0.1182
      2 C2          1.2954   -0.8197   -0.3356 C.ar      1 <0>        -0.0789
      3 C3          0.1429   -0.1806   -0.7536 C.ar      1 <0>        -0.1109
      4 C4         -1.0774   -0.5276   -0.2052 C.ar      1 <0>        -0.1102
      5 C5         -1.1457   -1.5141    0.7611 C.ar      1 <0>        -0.0781
      6 C6          0.0063   -2.1537    1.1782 C.ar      1 <0>        -0.1113
      7 C7          1.2265   -1.8096    0.6266 C.ar      1 <0>        -0.1015
      8 C8         -0.0680   -3.2287    2.2317 C.3       1 <0>         0.1527
      9 N1          1.2753   -3.7537    2.4893 N.am      1 <0>        -0.4889
     10 C9          1.7254   -4.8327    1.7821 C.2       1 <0>         0.0742
     11 C10         3.0056   -5.3605    2.0029 C.2       1 <0>        -0.2656
     12 C11         3.3511   -6.4670    1.2169 C.2       1 <0>         0.0657
     13 C12         2.4180   -6.9139    0.3266 C.2       1 <0>        -0.2841
     14 S1          1.0598   -5.7907    0.5856 S.3       1 <0>         0.2891
     15 C13         2.5105   -8.0373   -0.6089 C.2       1 <0>         0.6158
     16 O1          3.5248   -8.7086   -0.6555 O.2       1 <0>        -0.5031
     17 N2          1.4725   -8.3277   -1.4180 N.am      1 <0>        -0.5742
     18 N3          1.5587   -9.3753   -2.2904 N.3       1 <0>        -0.5972
     19 C14         4.6955   -7.1351    1.3481 C.3       1 <0>        -0.1192
     20 C15         3.8136   -4.6720    3.0389 C.2       1 <0>         0.5869
     21 O2          4.9378   -5.0577    3.3004 O.2       1 <0>        -0.4857
     22 N4          3.2887   -3.6162    3.6852 N.am      1 <0>        -0.5366
     23 C16         2.0534   -3.1641    3.4158 C.2       1 <0>         0.7166
     24 O3          1.6267   -2.2025    4.0252 O.2       1 <0>        -0.5147
     25 C17         4.0883   -2.9376    4.7081 C.3       1 <0>         0.0874
     26 C18         4.8919   -1.8351    4.0680 C.2       1 <0>         0.5103
     27 O4          4.8053   -1.6359    2.8748 O.2       1 <0>        -0.5303
     28 N5          5.7069   -1.0706    4.8214 N.am      1 <0>        -0.8470
     29 C19        -2.4761   -1.8917    1.3597 C.3       1 <0>        -0.1206
     30 H1          2.8169   -1.0561   -1.8132 H         1 <0>         0.0719
     31 H2          2.6092    0.6097   -1.2215 H         1 <0>         0.0682
     32 H3          3.4141   -0.6042   -0.1985 H         1 <0>         0.0685
     33 H4          0.1962    0.5901   -1.5083 H         1 <0>         0.1249
     34 H5         -1.9776   -0.0278   -0.5311 H         1 <0>         0.1270
     35 H6          2.1262   -2.3120    0.9498 H         1 <0>         0.1123
     36 H7         -0.4764   -2.8089    3.1510 H         1 <0>         0.1246
     37 H8         -0.7127   -4.0354    1.8828 H         1 <0>         0.1082
     38 H9          0.6642   -7.7927   -1.3809 H         1 <0>         0.3976
     39 H10         1.7773  -10.2326   -1.8054 H         1 <0>         0.3508
     40 H11         0.7094   -9.4698   -2.8270 H         1 <0>         0.3616
     41 H12         4.6371   -7.9251    2.0968 H         1 <0>         0.0843
     42 H13         4.9830   -7.5647    0.3884 H         1 <0>         0.0957
     43 H14         5.4388   -6.3989    1.6539 H         1 <0>         0.0859
     44 H15         3.4272   -2.5135    5.4639 H         1 <0>         0.1343
     45 H16         4.7631   -3.6542    5.1764 H         1 <0>         0.1360
     46 H17         5.7762   -1.2299    5.7757 H         1 <0>         0.4046
     47 H18         6.2242   -0.3609    4.4094 H         1 <0>         0.4079
     48 H19        -2.8813   -2.7539    0.8300 H         1 <0>         0.0744
     49 H20        -2.3431   -2.1416    2.4123 H         1 <0>         0.0672
     50 H21        -3.1662   -1.0528    1.2698 H         1 <0>         0.0718
@<TRIPOS>BOND
     1    1    2 1
     2    1   30 1
     3    1   31 1
     4    1   32 1
     5    2    7 ar
     6    2    3 ar
     7    3    4 ar
     8    3   33 1
     9    4    5 ar
    10    4   34 1
    11    5    6 ar
    12    5   29 1
    13    6    7 ar
    14    6    8 1
    15    7   35 1
    16    8    9 1
    17    8   36 1
    18    8   37 1
    19    9   23 am
    20    9   10 1
    21   10   14 1
    22   10   11 2
    23   11   12 1
    24   11   20 1
    25   12   13 2
    26   12   19 1
    27   13   14 1
    28   13   15 1
    29   15   16 2
    30   15   17 am
    31   17   18 1
    32   17   38 1
    33   18   39 1
    34   18   40 1
    35   19   41 1
    36   19   42 1
    37   19   43 1
    38   20   21 2
    39   20   22 am
    40   22   23 am
    41   22   25 1
    42   23   24 2
    43   25   26 1
    44   25   44 1
    45   25   45 1
    46   26   27 2
    47   26   28 am
    48   28   46 1
    49   28   47 1
    50   29   48 1
    51   29   49 1
    52   29   50 1
@<TRIPOS>MOLECULE
ZINC40794669
   49    52     0     0     0
SMALL
USER_CHARGES

@<TRIPOS>ATOM
      1 C1          1.3657    1.6548   -1.1108 C.3       1 <0>        -0.1281
      2 C2          1.2663    0.1520   -1.0576 C.ar      1 <0>        -0.0229
      3 C3          1.4027   -0.5911   -2.2152 C.ar      1 <0>        -0.1407
      4 C4          1.3116   -1.9696   -2.1664 C.ar      1 <0>        -0.0109
      5 C5          1.0845   -2.6050   -0.9599 C.ar      1 <0>        -0.6899
      6 C6          0.9491   -1.8619    0.1979 C.ar      1 <0>        -0.0214
      7 C7          1.0445   -0.4837    0.1497 C.ar      1 <0>        -0.1415
      8 S1          0.9673   -4.3620   -0.8979 S.o2      1 <0>         2.6955
      9 O1          0.2087   -4.6777    0.2615 O.2       1 <0>        -0.9389
     10 O2          0.5853   -4.7896   -2.1980 O.2       1 <0>        -0.9377
     11 N1          2.4949   -4.9458   -0.6374 N.pl3     1 <0>        -0.8914
     12 N2          3.1977   -4.5784    0.5176 N.pl3     1 <0>        -0.4978
     13 C8          3.7038   -5.5576    1.3639 C.ar      1 <0>         0.4078
     14 C9          4.4010   -5.2035    2.5210 C.ar      1 <0>         0.0186
     15 C10         4.8877   -6.2266    3.3361 C.ar      1 <0>         0.3906
     16 N3          4.6705   -7.4915    2.9822 N.ar      1 <0>        -0.5514
     17 C11         4.0075   -7.7824    1.8817 C.ar      1 <0>         0.3274
     18 N4          3.5270   -6.8470    1.0872 N.ar      1 <0>        -0.5525
     19 N5          5.5890   -5.9294    4.4995 N.pl3     1 <0>        -0.6459
     20 C12         6.1851   -6.9517    5.2336 C.ar      1 <0>         0.1836
     21 C13         6.5628   -8.1256    4.6142 C.ar      1 <0>        -0.1309
     22 C14         7.1585   -9.1503    5.3413 C.ar      1 <0>        -0.0701
     23 C15         7.3856   -9.0264    6.6786 C.ar      1 <0>        -0.1226
     24 C16         7.0171   -7.8478    7.3489 C.ar      1 <0>         0.1464
     25 C17         6.4143   -6.7954    6.6168 C.ar      1 <0>        -0.1224
     26 C18         6.0512   -5.6164    7.2894 C.ar      1 <0>        -0.0602
     27 C19         6.3030   -5.5347    8.6305 C.ar      1 <0>        -0.1775
     28 C20         6.9038   -6.6034    9.2906 C.ar      1 <0>         0.1328
     29 N6          7.2310   -7.7065    8.6616 N.ar      1 <0>        -0.4716
     30 N7          4.6071   -3.8555    2.8550 N.pl3     1 <0>        -0.8753
     31 H1          2.4038    1.9555   -0.9697 H         1 <0>         0.0814
     32 H2          1.0136    2.0081   -2.0800 H         1 <0>         0.0751
     33 H3          0.7515    2.0877   -0.3212 H         1 <0>         0.0747
     34 H4          1.5800   -0.0947   -3.1578 H         1 <0>         0.1358
     35 H5          1.4174   -2.5501   -3.0709 H         1 <0>         0.1433
     36 H6          0.7714   -2.3583    1.1404 H         1 <0>         0.1411
     37 H7          0.9424    0.0966    1.0548 H         1 <0>         0.1351
     38 H8          2.9031   -5.5420   -1.2844 H         1 <0>         0.4295
     39 H9          3.3310   -3.6406    0.7265 H         1 <0>         0.4267
     40 H10         3.8497   -8.8194    1.6245 H         1 <0>         0.2027
     41 H11         5.6629   -5.0100    4.7997 H         1 <0>         0.4125
     42 H12         6.3937   -8.2498    3.5548 H         1 <0>         0.1538
     43 H13         7.4460  -10.0609    4.8368 H         1 <0>         0.1333
     44 H14         7.8490   -9.8349    7.2244 H         1 <0>         0.1348
     45 H15         5.5862   -4.7971    6.7613 H         1 <0>         0.1279
     46 H16         6.0366   -4.6423    9.1773 H         1 <0>         0.1377
     47 H17         7.0970   -6.5252   10.3503 H         1 <0>         0.1602
     48 H18         4.2633   -3.1551    2.2787 H         1 <0>         0.3959
     49 H19         5.0932   -3.6246    3.6619 H         1 <0>         0.3969
@<TRIPOS>BOND
     1    1    2 1
     2    1   31 1
     3    1   32 1
     4    1   33 1
     5    2    7 ar
     6    2    3 ar
     7    3    4 ar
     8    3   34 1
     9    4    5 ar
    10    4   35 1
    11    5    6 ar
    12    5    8 1
    13    6    7 ar
    14    6   36 1
    15    7   37 1
    16    8    9 2
    17    8   10 2
    18    8   11 1
    19   11   12 1
    20   11   38 1
    21   12   13 1
    22   12   39 1
    23   13   18 ar
    24   13   14 ar
    25   14   15 ar
    26   14   30 1
    27   15   16 ar
    28   15   19 1
    29   16   17 ar
    30   17   18 ar
    31   17   40 1
    32   19   20 1
    33   19   41 1
    34   20   25 ar
    35   20   21 ar
    36   21   22 ar
    37   21   42 1
    38   22   23 ar
    39   22   43 1
    40   23   24 ar
    41   23   44 1
    42   24   29 ar
    43   24   25 ar
    44   25   26 ar
    45   26   27 ar
    46   26   45 1
    47   27   28 ar
    48   27   46 1
    49   28   29 ar
    50   28   47 1
    51   30   48 1
    52   30   49 1
@<TRIPOS>MOLECULE
ZINC59385035
   47    49     0     0     0
SMALL
USER_CHARGES

@<TRIPOS>ATOM
      1 C1         -0.4003    1.5836   -0.3037 C.3       1 <0>        -0.1224
      2 C2         -0.2285    0.0940   -0.1533 C.2       1 <0>         0.2374
      3 C3         -1.3190   -0.7016   -0.1344 C.2       1 <0>        -0.2891
      4 C4         -1.1013   -2.1934    0.0181 C.3       1 <0>         0.2190
      5 H1         -1.5490   -2.6882   -0.8437 H         1 <0>         0.1037
      6 N1          0.2920   -2.6559    0.1340 N.pl3     1 <0>        -0.6433
      7 C5          1.2778   -1.7376    0.0980 C.2       1 <0>         0.5552
      8 S1          2.9024   -2.2609    0.2310 S.2       1 <0>        -0.5790
      9 N2          1.0282   -0.4297   -0.0440 N.pl3     1 <0>        -0.5981
     10 C6         -1.8447   -2.6481    1.2476 C.ar      1 <0>        -0.1719
     11 C7         -2.2355   -1.7250    2.1990 C.ar      1 <0>        -0.0597
     12 C8         -2.9171   -2.1388    3.3272 C.ar      1 <0>        -0.1495
     13 C9         -3.2111   -3.4831    3.5077 C.ar      1 <0>         0.1439
     14 C10        -2.8202   -4.4109    2.5550 C.ar      1 <0>        -0.1710
     15 C11        -2.1411   -3.9925    1.4208 C.ar      1 <0>         0.1403
     16 O1         -1.7619   -4.8989    0.4821 O.3       1 <0>        -0.4928
     17 O2         -3.8812   -3.8896    4.6179 O.3       1 <0>        -0.4937
     18 C12        -2.6222   -0.1604   -0.2525 C.2       1 <0>         0.6086
     19 O3         -2.7813    1.0470   -0.2653 O.2       1 <0>        -0.4972
     20 N3         -3.6866   -0.9813   -0.3508 N.am      1 <0>        -0.5754
     21 N4         -4.9636   -0.4493   -0.5717 N.2       1 <0>        -0.2003
     22 C13        -5.9885   -1.2398   -0.6664 C.2       1 <0>         0.0908
     23 C14        -7.3328   -0.6797   -0.8988 C.ar      1 <0>         0.0022
     24 C15        -7.5059    0.7008   -1.0234 C.ar      1 <0>        -0.0823
     25 C16        -8.7661    1.2176   -1.2412 C.ar      1 <0>        -0.0556
     26 C17        -9.8573    0.3721   -1.3359 C.ar      1 <0>        -0.0390
     27 C18        -9.6934   -0.9963   -1.2131 C.ar      1 <0>        -0.0561
     28 C19        -8.4382   -1.5276   -1.0013 C.ar      1 <0>        -0.0920
     29 N5        -11.2066    0.9343   -1.5693 N.pl3     1 <0>         0.0300
     30 O4        -11.3532    2.1296   -1.6767 O.2       1 <0>        -0.1539
     31 O5        -12.1621    0.1982   -1.6525 O.3       1 <0>        -0.1547
     32 H2          0.5781    2.0640   -0.3034 H         1 <0>         0.0749
     33 H3         -0.9098    1.7975   -1.2432 H         1 <0>         0.1097
     34 H4         -0.9933    1.9666    0.5268 H         1 <0>         0.1137
     35 H5          0.4954   -3.5990    0.2341 H         1 <0>         0.4424
     36 H6          1.7819    0.1804   -0.0664 H         1 <0>         0.4453
     37 H7         -2.0073   -0.6785    2.0604 H         1 <0>         0.1335
     38 H8         -3.2212   -1.4155    4.0694 H         1 <0>         0.1378
     39 H9         -3.0480   -5.4575    2.6937 H         1 <0>         0.1433
     40 H10        -0.8842   -5.2763    0.6317 H         1 <0>         0.3960
     41 H11        -4.8429   -3.8961    4.5165 H         1 <0>         0.3988
     42 H12        -3.5684   -1.9406   -0.2687 H         1 <0>         0.3898
     43 H13        -5.8569   -2.3078   -0.5749 H         1 <0>         0.1302
     44 H14        -6.6551    1.3620   -0.9490 H         1 <0>         0.1592
     45 H15        -8.9014    2.2847   -1.3378 H         1 <0>         0.1585
     46 H16       -10.5496   -1.6503   -1.2873 H         1 <0>         0.1592
     47 H17        -8.3110   -2.5962   -0.9100 H         1 <0>         0.1537
@<TRIPOS>BOND
     1    1    2 1
     2    1   32 1
     3    1   33 1
     4    1   34 1
     5    2    9 1
     6    2    3 2
     7    3    4 1
     8    3   18 1
     9    4    5 1
    10    4    6 1
    11    4   10 1
    12    6    7 1
    13    6   35 1
    14    7    8 2
    15    7    9 1
    16    9   36 1
    17   10   15 ar
    18   10   11 ar
    19   11   12 ar
    20   11   37 1
    21   12   13 ar
    22   12   38 1
    23   13   14 ar
    24   13   17 1
    25   14   15 ar
    26   14   39 1
    27   15   16 1
    28   16   40 1
    29   17   41 1
    30   18   19 2
    31   18   20 am
    32   20   21 1
    33   20   42 1
    34   21   22 2
    35   22   23 1
    36   22   43 1
    37   23   28 ar
    38   23   24 ar
    39   24   25 ar
    40   24   44 1
    41   25   26 ar
    42   25   45 1
    43   26   27 ar
    44   26   29 1
    45   27   28 ar
    46   27   46 1
    47   28   47 1
    48   29   30 2
    49   29   31 1
@<TRIPOS>MOLECULE
ZINC35740085
   61    63     0     0     0
SMALL
USER_CHARGES

@<TRIPOS>ATOM
      1 C1         -1.5923    0.2003    6.4687 C.3       1 <0>        -0.1377
      2 C2         -1.2635   -1.1716    5.9387 C.ar      1 <0>        -0.0287
      3 C3         -1.8230   -2.2915    6.5265 C.ar      1 <0>        -0.0772
      4 C4         -1.5241   -3.5520    6.0433 C.ar      1 <0>        -0.0698
      5 C5         -0.6648   -3.6966    4.9716 C.ar      1 <0>        -0.1529
      6 C6         -0.1013   -2.5741    4.3790 C.ar      1 <0>         0.0563
      7 C7         -0.4085   -1.3087    4.8631 C.ar      1 <0>        -0.1092
      8 N1          0.7693   -2.7169    3.2942 N.pl3     1 <0>        -0.6015
      9 C8          1.4682   -3.8952    3.1202 C.cat     1 <0>         0.7512
     10 N2          1.7119   -4.3389    1.9145 N.pl3     1 <0>        -0.5875
     11 C9          1.3458   -3.5285    0.7459 C.3       1 <0>         0.0993
     12 C10        -0.1014   -3.8347    0.3556 C.3       1 <0>        -0.1550
     13 C11        -0.4940   -3.0073   -0.8679 C.3       1 <0>         0.0630
     14 N3          0.4332   -3.1911   -1.9745 N.4       1 <0>        -0.5007
     15 C12         1.8560   -3.1255   -1.6816 C.3       1 <0>         0.0640
     16 C13         2.2488   -3.9020   -0.4291 C.3       1 <0>        -0.1456
     17 C14         2.3461   -1.6791   -1.5740 C.3       1 <0>        -0.1815
     18 C15         2.6055   -3.7681   -2.8732 C.3       1 <0>        -0.1861
     19 C16        -0.6477   -1.5361   -0.4839 C.3       1 <0>        -0.1802
     20 C17        -1.8812   -3.5070   -1.3332 C.3       1 <0>        -0.1857
     21 N4          1.9032   -4.5945    4.2034 N.pl3     1 <0>        -0.5898
     22 C18         2.4046   -4.1169    5.3347 C.cat     1 <0>         0.4959
     23 N5          2.5483   -2.7505    5.5481 N.pl3     1 <0>        -0.7531
     24 C19         2.7767   -5.0415    6.2909 C.2       1 <0>        -0.2543
     25 C20         2.5831   -6.3446    5.9560 C.2       1 <0>        -0.0030
     26 S1          1.9218   -6.2537    4.4168 S.3       1 <0>         0.5536
     27 C21         2.8840   -7.5746    6.7731 C.3       1 <0>        -0.1188
     28 H1         -2.4712    0.5878    5.9535 H         1 <0>         0.0946
     29 H2         -1.7959    0.1376    7.5377 H         1 <0>         0.0895
     30 H3         -0.7475    0.8677    6.2982 H         1 <0>         0.0809
     31 H4         -2.4946   -2.1813    7.3650 H         1 <0>         0.1549
     32 H5         -1.9626   -4.4246    6.5046 H         1 <0>         0.1534
     33 H6         -0.4311   -4.6815    4.5950 H         1 <0>         0.1169
     34 H7          0.0246   -0.4335    4.4017 H         1 <0>         0.1474
     35 H8          2.1345   -5.2034    1.7920 H         1 <0>         0.4536
     36 H9          1.4604   -2.4774    0.9948 H         1 <0>         0.1296
     37 H10        -0.1990   -4.8965    0.1241 H         1 <0>         0.1211
     38 H11        -0.7619   -3.5875    1.1886 H         1 <0>         0.1240
     39 H12         0.2360   -4.0950   -2.4114 H         1 <0>         0.4346
     40 H13         3.2874   -3.6779   -0.1726 H         1 <0>         0.1344
     41 H14         2.1620   -4.9742   -0.6246 H         1 <0>         0.1195
     42 H15         1.8811   -1.2011   -0.7119 H         1 <0>         0.0755
     43 H16         3.4294   -1.6705   -1.4539 H         1 <0>         0.1132
     44 H17         2.0767   -1.1359   -2.4798 H         1 <0>         0.0996
     45 H18         2.3783   -3.2164   -3.7854 H         1 <0>         0.0991
     46 H19         3.6790   -3.7361   -2.6871 H         1 <0>         0.1144
     47 H20         2.2871   -4.8043   -2.9865 H         1 <0>         0.0895
     48 H21         0.2500   -1.2004    0.0355 H         1 <0>         0.0730
     49 H22        -0.7913   -0.9387   -1.3843 H         1 <0>         0.1010
     50 H23        -1.5112   -1.4197    0.1709 H         1 <0>         0.1129
     51 H24        -2.6050   -3.3700   -0.5298 H         1 <0>         0.1118
     52 H25        -2.1974   -2.9388   -2.2079 H         1 <0>         0.0993
     53 H26        -1.8191   -4.5645   -1.5898 H         1 <0>         0.0899
     54 H27         2.3096   -2.1226    4.8483 H         1 <0>         0.4224
     55 H28         3.1946   -4.7483    7.2426 H         1 <0>         0.2294
     56 H29         2.0119   -7.8344    7.3732 H         1 <0>         0.1420
     57 H30         3.1267   -8.4027    6.1073 H         1 <0>         0.1190
     58 H31         3.7310   -7.3762    7.4299 H         1 <0>         0.1352
     59 H32         2.8871   -2.4251    6.3968 H         1 <0>         0.4595
     60 H33         0.8824   -1.9884    2.6639 H         1 <0>         0.4514
     61 H34         0.2192   -2.4941   -2.6920 H         1 <0>         0.4425
@<TRIPOS>BOND
     1    1    2 1
     2    1   28 1
     3    1   29 1
     4    1   30 1
     5    2    7 ar
     6    2    3 ar
     7    3    4 ar
     8    3   31 1
     9    4    5 ar
    10    4   32 1
    11    5    6 ar
    12    5   33 1
    13    6    7 ar
    14    6    8 1
    15    7   34 1
    16    8    9 1
    17    8   60 1
    18    9   10 2
    19    9   21 1
    20   10   11 1
    21   10   35 1
    22   11   16 1
    23   11   12 1
    24   11   36 1
    25   12   13 1
    26   12   37 1
    27   12   38 1
    28   13   14 1
    29   13   19 1
    30   13   20 1
    31   14   15 1
    32   14   39 1
    33   14   61 1
    34   15   16 1
    35   15   17 1
    36   15   18 1
    37   16   40 1
    38   16   41 1
    39   17   42 1
    40   17   43 1
    41   17   44 1
    42   18   45 1
    43   18   46 1
    44   18   47 1
    45   19   48 1
    46   19   49 1
    47   19   50 1
    48   20   51 1
    49   20   52 1
    50   20   53 1
    51   21   26 1
    52   21   22 2
    53   22   23 1
    54   22   24 1
    55   23   54 1
    56   23   59 1
    57   24   25 2
    58   24   55 1
    59   25   26 1
    60   25   27 1
    61   27   56 1
    62   27   57 1
    63   27   58 1
@<TRIPOS>MOLECULE
ZINC40704089
   54    56     0     0     0
SMALL
USER_CHARGES

@<TRIPOS>ATOM
      1 C1          0.0032    1.0252    0.1951 C.3       1 <0>        -0.1770
      2 C2          0.2768   -0.4786    0.3018 C.3       1 <0>         0.0635
      3 C3          0.8566   -0.9918   -1.0122 C.3       1 <0>        -0.1423
      4 C4          2.3130   -0.5508   -1.1599 C.3       1 <0>         0.1586
      5 C5          3.1060   -1.1247    0.0144 C.3       1 <0>        -0.1421
      6 C6          2.5432   -0.6131    1.3364 C.3       1 <0>         0.0594
      7 N1          1.1059   -0.7840    1.4544 N.4       1 <0>        -0.4906
      8 C7          2.9488    0.8503    1.5405 C.3       1 <0>        -0.1716
      9 C8          3.2085   -1.4299    2.4684 C.3       1 <0>        -0.1791
     10 N2          2.8549   -1.0832   -2.4162 N.pl3     1 <0>        -0.7170
     11 C9          3.9195   -0.4438   -3.0400 C.ar      1 <0>         0.3970
     12 C10         4.4396   -0.9376   -4.2381 C.ar      1 <0>         0.0151
     13 C11         5.5091   -0.2572   -4.8223 C.ar      1 <0>         0.3924
     14 N3          5.9890    0.8285   -4.2196 N.ar      1 <0>        -0.5517
     15 C12         5.4690    1.2612   -3.0892 C.ar      1 <0>         0.3271
     16 N4          4.4556    0.6516   -2.5076 N.ar      1 <0>        -0.5691
     17 N5          6.0649   -0.7065   -6.0151 N.pl3     1 <0>        -0.6525
     18 C13         7.2100   -0.0903   -6.5285 C.ar      1 <0>         0.1786
     19 C14         7.3661    0.0543   -7.9015 C.ar      1 <0>        -0.1352
     20 C15         8.4977    0.6637   -8.4065 C.ar      1 <0>        -0.0744
     21 C16         9.4764    1.1304   -7.5467 C.ar      1 <0>        -0.0500
     22 C17         9.3239    0.9879   -6.1777 C.ar      1 <0>        -0.0101
     23 C18         8.1906    0.3834   -5.6669 C.ar      1 <0>        -0.0961
     24 Cl1        10.5538    1.5747   -5.1022 Cl        1 <0>        -0.0413
     25 Cl2        10.8978    1.8954   -8.1853 Cl        1 <0>        -0.0438
     26 N6          3.9018   -2.0874   -4.8385 N.pl3     1 <0>        -0.8743
     27 C19        -1.0888   -1.1744    0.5070 C.3       1 <0>        -0.1801
     28 H1          0.9475    1.5601    0.0942 H         1 <0>         0.0846
     29 H2         -0.6199    1.2201   -0.6778 H         1 <0>         0.1042
     30 H3         -0.5129    1.3652    1.0930 H         1 <0>         0.0843
     31 H4          0.8049   -2.0830   -1.0323 H         1 <0>         0.0920
     32 H5          0.2727   -0.5971   -1.8472 H         1 <0>         0.1141
     33 H6          2.3836    0.5330   -1.1745 H         1 <0>         0.1100
     34 H7          3.0489   -2.2155   -0.0087 H         1 <0>         0.0857
     35 H8          4.1532   -0.8259   -0.0760 H         1 <0>         0.1144
     36 H9          0.7791   -0.2183    2.2439 H         1 <0>         0.4265
     37 H10         2.5547    1.4540    0.7229 H         1 <0>         0.0842
     38 H11         2.5442    1.2110    2.4862 H         1 <0>         0.0798
     39 H12         4.0360    0.9271    1.5575 H         1 <0>         0.1059
     40 H13         4.2886   -1.2876    2.4325 H         1 <0>         0.1063
     41 H14         2.8292   -1.0908    3.4323 H         1 <0>         0.0828
     42 H15         2.9768   -2.4870    2.3382 H         1 <0>         0.0800
     43 H16         2.4698   -1.8812   -2.8109 H         1 <0>         0.4066
     44 H17         5.8831    2.1451   -2.6271 H         1 <0>         0.1992
     45 H18         5.6581   -1.4475   -6.4908 H         1 <0>         0.4179
     46 H19         6.6030   -0.3100   -8.5733 H         1 <0>         0.1394
     47 H20         8.6192    0.7758   -9.4738 H         1 <0>         0.1481
     48 H21         8.0697    0.2762   -4.5990 H         1 <0>         0.1508
     49 H22         3.1586   -2.5502   -4.4208 H         1 <0>         0.3952
     50 H23         4.2733   -2.4188   -5.6709 H         1 <0>         0.3985
     51 H24        -1.7368   -0.9606   -0.3430 H         1 <0>         0.1067
     52 H25        -0.9395   -2.2511    0.5882 H         1 <0>         0.0814
     53 H26        -1.5528   -0.8020    1.4203 H         1 <0>         0.0848
     54 H27         0.9206   -1.7525    1.7343 H         1 <0>         0.4232
@<TRIPOS>BOND
     1    1    2 1
     2    1   28 1
     3    1   29 1
     4    1   30 1
     5    2    7 1
     6    2    3 1
     7    2   27 1
     8    3    4 1
     9    3   31 1
    10    3   32 1
    11    4    5 1
    12    4   10 1
    13    4   33 1
    14    5    6 1
    15    5   34 1
    16    5   35 1
    17    6    7 1
    18    6    8 1
    19    6    9 1
    20    7   36 1
    21    7   54 1
    22    8   37 1
    23    8   38 1
    24    8   39 1
    25    9   40 1
    26    9   41 1
    27    9   42 1
    28   10   11 1
    29   10   43 1
    30   11   16 ar
    31   11   12 ar
    32   12   13 ar
    33   12   26 1
    34   13   14 ar
    35   13   17 1
    36   14   15 ar
    37   15   16 ar
    38   15   44 1
    39   17   18 1
    40   17   45 1
    41   18   23 ar
    42   18   19 ar
    43   19   20 ar
    44   19   46 1
    45   20   21 ar
    46   20   47 1
    47   21   22 ar
    48   21   25 1
    49   22   23 ar
    50   22   24 1
    51   23   48 1
    52   26   49 1
    53   26   50 1
    54   27   51 1
    55   27   52 1
    56   27   53 1
@<TRIPOS>MOLECULE
ZINC44699301
   62    63     0     0     0
SMALL
USER_CHARGES

@<TRIPOS>ATOM
      1 C1         -1.5278    1.9335   -0.1231 C.3       1 <0>        -0.1587
      2 C2         -0.8014    0.6181    0.1649 C.3       1 <0>        -0.1246
      3 C3         -1.7533   -0.5544   -0.0802 C.3       1 <0>        -0.1126
      4 C4         -1.0269   -1.8699    0.2077 C.3       1 <0>        -0.1029
      5 H1         -0.1032   -1.9374   -0.3670 H         1 <0>         0.1096
      6 C5         -0.7499   -2.0310    1.7257 C.3       1 <0>        -0.1190
      7 C6         -0.6799   -3.5620    1.9057 C.3       1 <0>         0.0052
      8 H2          0.3596   -3.8897    1.8932 H         1 <0>         0.1517
      9 N1         -1.4105   -4.1684    0.7776 N.4       1 <0>        -0.3765
     10 C7         -1.9459   -3.0845   -0.0743 C.3       1 <0>        -0.0070
     11 C8         -2.5170   -4.9883    1.2889 C.3       1 <0>        -0.0601
     12 C9         -1.3254   -3.9550    3.2095 C.2       1 <0>         0.5055
     13 O1         -2.5050   -3.7394    3.3914 O.2       1 <0>        -0.5141
     14 N2         -0.5920   -4.5462    4.1734 N.am      1 <0>        -0.6726
     15 C10        -1.2208   -4.9334    5.4386 C.3       1 <0>         0.1277
     16 H3         -2.1672   -4.4045    5.5508 H         1 <0>         0.1251
     17 C11        -0.2935   -4.5718    6.6006 C.3       1 <0>         0.0775
     18 H4         -0.7612   -4.8598    7.5421 H         1 <0>         0.1145
     19 C12        -0.0372   -3.0624    6.5986 C.3       1 <0>         0.1008
     20 H5         -0.9772   -2.5332    6.7551 H         1 <0>         0.0703
     21 C13         0.9390   -2.7167    7.7273 C.3       1 <0>         0.0788
     22 H6          0.4886   -2.9661    8.6881 H         1 <0>         0.0852
     23 C14         2.2264   -3.5252    7.5395 C.3       1 <0>         0.0734
     24 H7          2.9053   -3.3268    8.3689 H         1 <0>         0.0781
     25 C15         1.8827   -5.0166    7.5052 C.3       1 <0>         0.0885
     26 H8          2.7898   -5.5947    7.3289 H         1 <0>         0.1299
     27 O2          0.9476   -5.2647    6.4534 O.3       1 <0>        -0.3454
     28 S1          1.1523   -5.5058    9.0919 S.3       1 <0>        -0.2710
     29 C16         1.0880   -7.3166    9.0058 C.3       1 <0>        -0.1187
     30 O3          2.8513   -3.1494    6.3105 O.3       1 <0>        -0.5209
     31 O4          1.2395   -1.3202    7.6883 O.3       1 <0>        -0.5514
     32 O5          0.5256   -2.6753    5.3435 O.3       1 <0>        -0.5372
     33 C17        -1.4763   -6.4419    5.4405 C.3       1 <0>         0.0954
     34 H9         -0.5539   -6.9670    5.1923 H         1 <0>         0.0688
     35 C18        -1.9532   -6.8767    6.8277 C.3       1 <0>        -0.1579
     36 O6         -2.4788   -6.7564    4.4719 O.3       1 <0>        -0.5457
     37 H10        -0.8497    2.7688    0.0515 H         1 <0>         0.0610
     38 H11        -1.8594    1.9456   -1.1614 H         1 <0>         0.0576
     39 H12        -2.3918    2.0231    0.5353 H         1 <0>         0.0568
     40 H13         0.0626    0.5284   -0.4936 H         1 <0>         0.0667
     41 H14        -0.4698    0.6059    1.2031 H         1 <0>         0.0651
     42 H15        -2.6173   -0.4648    0.5782 H         1 <0>         0.0762
     43 H16        -2.0849   -0.5423   -1.1185 H         1 <0>         0.0798
     44 H17         0.1989   -1.5674    1.9957 H         1 <0>         0.1195
     45 H18        -1.5663   -1.6108    2.3131 H         1 <0>         0.1084
     46 H19        -2.9742   -2.8554    0.2053 H         1 <0>         0.1374
     47 H20        -1.8914   -3.3656   -1.1260 H         1 <0>         0.1399
     48 H21        -3.2707   -4.3418    1.7385 H         1 <0>         0.1534
     49 H22        -2.9629   -5.5495    0.4677 H         1 <0>         0.1250
     50 H23        -2.1385   -5.6819    2.0397 H         1 <0>         0.1066
     51 H24         0.3523   -4.7152    4.0293 H         1 <0>         0.4174
     52 H25         0.4711   -7.6184    8.1593 H         1 <0>         0.0838
     53 H26         2.0964   -7.7104    8.8791 H         1 <0>         0.0831
     54 H27         0.6577   -7.7091    9.9271 H         1 <0>         0.1105
     55 H28         3.6740   -3.6231    6.1267 H         1 <0>         0.3760
     56 H29         1.8536   -1.0307    8.3768 H         1 <0>         0.3896
     57 H30         0.7140   -1.7295    5.2719 H         1 <0>         0.3829
     58 H31        -2.8756   -6.3516    7.0759 H         1 <0>         0.0716
     59 H32        -2.1352   -7.9514    6.8290 H         1 <0>         0.0748
     60 H33        -1.1885   -6.6368    7.5665 H         1 <0>         0.0800
     61 H34        -2.2091   -6.5896    3.5584 H         1 <0>         0.3582
     62 H35        -0.7832   -4.7454    0.2377 H         1 <0>         0.4290
@<TRIPOS>BOND
     1    1    2 1
     2    1   37 1
     3    1   38 1
     4    1   39 1
     5    2    3 1
     6    2   40 1
     7    2   41 1
     8    3    4 1
     9    3   42 1
    10    3   43 1
    11    4    5 1
    12    4   10 1
    13    4    6 1
    14    6    7 1
    15    6   44 1
    16    6   45 1
    17    7    8 1
    18    7    9 1
    19    7   12 1
    20    9   10 1
    21    9   11 1
    22    9   62 1
    23   10   46 1
    24   10   47 1
    25   11   48 1
    26   11   49 1
    27   11   50 1
    28   12   13 2
    29   12   14 am
    30   14   15 1
    31   14   51 1
    32   15   16 1
    33   15   17 1
    34   15   33 1
    35   17   18 1
    36   17   27 1
    37   17   19 1
    38   19   20 1
    39   19   21 1
    40   19   32 1
    41   21   22 1
    42   21   23 1
    43   21   31 1
    44   23   24 1
    45   23   25 1
    46   23   30 1
    47   25   26 1
    48   25   27 1
    49   25   28 1
    50   28   29 1
    51   29   52 1
    52   29   53 1
    53   29   54 1
    54   30   55 1
    55   31   56 1
    56   32   57 1
    57   33   34 1
    58   33   35 1
    59   33   36 1
    60   35   58 1
    61   35   59 1
    62   35   60 1
    63   36   61 1
@<TRIPOS>MOLECULE
ZINC63494570
   57    62     0     0     0
SMALL
USER_CHARGES

@<TRIPOS>ATOM
      1 C1         -0.0163    1.3482    0.0095 C.ar      1 <0>        -0.1300
      2 C2          1.1658    2.1014    0.0022 C.ar      1 <0>         0.0535
      3 C3          2.3912    1.5352   -0.0125 C.ar      1 <0>        -0.2026
      4 C4          2.5288    0.1198   -0.0218 C.ar      1 <0>         0.3297
      5 N1          3.5868   -0.6543   -0.0369 N.pl3     1 <0>        -0.5765
      6 C5          3.1432   -2.0528   -0.0408 C.3       1 <0>         0.0623
      7 C6          1.6315   -2.0084   -0.0255 C.2       1 <0>         0.0357
      8 C7          1.2951   -0.6984   -0.0144 C.ar      1 <0>        -0.1466
      9 C8          0.0021   -0.0041    0.0020 C.ar      1 <0>        -0.0360
     10 C9          0.6905   -3.1856   -0.0239 C.3       1 <0>        -0.0806
     11 C10         0.4565   -3.6534   -1.4617 C.3       1 <0>         0.0590
     12 N2         -0.4608   -4.8008   -1.4602 N.3       1 <0>        -0.7030
     13 C11        -0.7092   -5.2781   -2.8271 C.3       1 <0>         0.5528
     14 H1         -0.8972   -4.4234   -3.4769 H         1 <0>         0.1622
     15 N3          0.4692   -5.9977   -3.3073 N.pl3     1 <0>        -0.7048
     16 C12         0.5768   -7.3132   -3.2980 C.ar      1 <0>         0.3121
     17 C13         1.7836   -7.9558   -3.6515 C.ar      1 <0>        -0.2054
     18 C14         1.8804   -9.3078   -3.5434 C.ar      1 <0>         0.0338
     19 C15         0.8175  -10.0916   -3.1016 C.ar      1 <0>        -0.1614
     20 C16        -0.3881   -9.5394   -2.7801 C.ar      1 <0>         0.0027
     21 C17        -0.5622   -8.1586   -2.9039 C.ar      1 <0>        -0.2394
     22 C18        -1.7970   -7.5149   -2.7046 C.2       1 <0>         0.5726
     23 N4         -1.8850   -6.1514   -2.8267 N.pl3     1 <0>        -0.4433
     24 N5         -3.1955   -5.7981   -2.9516 N.3       1 <0>        -0.3889
     25 C19        -3.9612   -6.9296   -2.3800 C.3       1 <0>         0.3041
     26 H2         -4.8134   -7.1740   -3.0142 H         1 <0>         0.1953
     27 N6         -2.9937   -8.0402   -2.3645 N.pl3     1 <0>        -0.6642
     28 C20        -4.4204   -6.6047   -0.9819 C.ar      1 <0>        -0.0365
     29 C21        -4.6941   -5.2972   -0.6107 C.ar      1 <0>        -0.1236
     30 C22        -5.1131   -5.0373    0.6805 C.ar      1 <0>         0.1613
     31 N7         -5.2528   -6.0153    1.5540 N.ar      1 <0>        -0.4334
     32 C23        -5.0016   -7.2702    1.2360 C.ar      1 <0>         0.1604
     33 C24        -4.5848   -7.6068   -0.0379 C.ar      1 <0>        -0.1096
     34 H3         -0.9665    1.8612    0.0259 H         1 <0>         0.1611
     35 H4          1.0933    3.1789    0.0083 H         1 <0>         0.1672
     36 H5          3.2717    2.1606   -0.0175 H         1 <0>         0.1666
     37 H6          3.4952   -2.5561   -0.9413 H         1 <0>         0.1703
     38 H7          3.5129   -2.5667    0.8465 H         1 <0>         0.1744
     39 H8         -0.9210   -0.5647    0.0081 H         1 <0>         0.1568
     40 H9          1.1268   -3.9987    0.5563 H         1 <0>         0.1104
     41 H10        -0.2596   -2.8905    0.4214 H         1 <0>         0.1156
     42 H11         0.0203   -2.8403   -2.0419 H         1 <0>         0.1033
     43 H12         1.4067   -3.9484   -1.9070 H         1 <0>         0.0616
     44 H13        -0.1087   -5.5443   -0.8759 H         1 <0>         0.3621
     45 H14         2.6240   -7.3773   -4.0058 H         1 <0>         0.1555
     46 H15         2.8103   -9.7887   -3.8087 H         1 <0>         0.1552
     47 H16         0.9501  -11.1597   -3.0119 H         1 <0>         0.1533
     48 H17        -1.1991  -10.1629   -2.4339 H         1 <0>         0.1450
     49 H18        -3.3884   -4.9424   -2.4530 H         1 <0>         0.3778
     50 H19        -3.1800   -8.9679   -2.1513 H         1 <0>         0.4688
     51 H20        -4.5809   -4.4918   -1.3213 H         1 <0>         0.1883
     52 H21        -5.3283   -4.0215    0.9775 H         1 <0>         0.2233
     53 H22        -5.1270   -8.0443    1.9786 H         1 <0>         0.2243
     54 H23        -4.3854   -8.6370   -0.2937 H         1 <0>         0.1869
     55 H24         1.2133   -5.4797   -3.6521 H         1 <0>         0.4355
     56 H25         4.5087   -0.3528   -0.0446 H         1 <0>         0.4610
     57 H26        -5.5477   -5.8061    2.4541 H         1 <0>         0.4642
@<TRIPOS>BOND
     1    1    9 ar
     2    1    2 ar
     3    1   34 1
     4    2    3 ar
     5    2   35 1
     6    3    4 ar
     7    3   36 1
     8    4    8 ar
     9    4    5 2
    10    5    6 1
    11    5   56 1
    12    6    7 1
    13    6   37 1
    14    6   38 1
    15    7    8 2
    16    7   10 1
    17    8    9 ar
    18    9   39 1
    19   10   11 1
    20   10   40 1
    21   10   41 1
    22   11   12 1
    23   11   42 1
    24   11   43 1
    25   12   13 1
    26   12   44 1
    27   13   14 1
    28   13   23 1
    29   13   15 1
    30   15   16 2
    31   15   55 1
    32   16   21 ar
    33   16   17 ar
    34   17   18 ar
    35   17   45 1
    36   18   19 ar
    37   18   46 1
    38   19   20 ar
    39   19   47 1
    40   20   21 ar
    41   20   48 1
    42   21   22 2
    43   22   27 1
    44   22   23 1
    45   23   24 1
    46   24   25 1
    47   24   49 1
    48   25   26 1
    49   25   27 1
    50   25   28 1
    51   27   50 1
    52   28   33 ar
    53   28   29 ar
    54   29   30 ar
    55   29   51 1
    56   30   31 ar
    57   30   52 1
    58   31   32 ar
    59   31   57 1
    60   32   33 ar
    61   32   53 1
    62   33   54 1
@<TRIPOS>MOLECULE
ZINC64131767
   61    65     0     0     0
SMALL
USER_CHARGES

@<TRIPOS>ATOM
      1 C1         -0.7800    1.0307   -0.2322 C.3       1 <0>         0.0102
      2 O1         -0.6653   -0.3933   -0.1989 O.3       1 <0>        -0.2965
      3 C2         -0.0387   -0.9866   -1.2491 C.ar      1 <0>         0.1249
      4 C3          0.4573   -0.1790   -2.2875 C.ar      1 <0>        -0.0153
      5 C4          1.0883   -0.6906   -3.3658 C.ar      1 <0>        -0.1573
      6 C5          1.2764   -2.1391   -3.4826 C.ar      1 <0>         0.3293
      7 N1          1.8603   -2.8755   -4.3991 N.pl3     1 <0>        -0.5630
      8 C6          1.6885   -4.2820   -4.0431 C.3       1 <0>         0.0945
      9 H1          1.0454   -4.7831   -4.7666 H         1 <0>         0.1822
     10 C7          3.0284   -5.0125   -3.9213 C.3       1 <0>        -0.1332
     11 C8          2.7838   -6.3906   -3.2958 C.3       1 <0>         0.0960
     12 N2          2.1771   -6.2571   -1.9668 N.am      1 <0>        -0.6115
     13 C9          0.8986   -5.5253   -1.8339 C.3       1 <0>         0.1630
     14 C10         1.0391   -4.2720   -2.6691 C.2       1 <0>        -0.0060
     15 C11         0.7603   -2.9940   -2.3835 C.ar      1 <0>        -0.0838
     16 C12         0.0908   -2.3343   -1.2562 C.ar      1 <0>        -0.1202
     17 C13         2.7749   -6.7930   -0.8843 C.2       1 <0>         0.5157
     18 O2          2.2649   -6.6769    0.2099 O.2       1 <0>        -0.4789
     19 C14         4.0772   -7.5366   -1.0336 C.3       1 <0>        -0.0234
     20 N3          4.5187   -8.0197    0.2816 N.3       1 <0>        -0.3253
     21 C15         5.8006   -8.7653    0.1726 C.3       1 <0>         0.1321
     22 H2          6.4612   -8.2948   -0.5556 H         1 <0>         0.1714
     23 N4          6.3598   -8.6488    1.5455 N.3       1 <0>        -0.4416
     24 N5          5.9885   -7.2966    1.9711 N.4       1 <0>        -0.2545
     25 N6          4.8290   -6.9004    1.1751 N.3       1 <0>        -0.2818
     26 C16         5.5479  -10.2294   -0.1929 C.3       1 <0>         0.0103
     27 N7          4.7630  -10.8711    0.8701 N.4       1 <0>        -0.4040
     28 C17         3.3797  -10.3301    0.8830 C.3       1 <0>        -0.0083
     29 C18         2.5723  -11.4385    1.6042 C.3       1 <0>        -0.1465
     30 C19         3.2252  -12.7382    1.0804 C.3       1 <0>        -0.1478
     31 C20         4.6272  -12.3190    0.6006 C.3       1 <0>        -0.0090
     32 H3          0.2149    1.4746   -0.2685 H         1 <0>         0.0680
     33 H4         -1.3435    1.3292   -1.1161 H         1 <0>         0.0703
     34 H5         -1.2987    1.3744    0.6627 H         1 <0>         0.1236
     35 H6          0.3285    0.8912   -2.2201 H         1 <0>         0.1758
     36 H7          1.4535   -0.0334   -4.1412 H         1 <0>         0.1767
     37 H8          3.4700   -5.1334   -4.9105 H         1 <0>         0.1236
     38 H9          3.7019   -4.4372   -3.2860 H         1 <0>         0.0930
     39 H10         2.1161   -6.9634   -3.9393 H         1 <0>         0.1058
     40 H11         3.7337   -6.9175   -3.2054 H         1 <0>         0.1050
     41 H12         0.0775   -6.1280   -2.2221 H         1 <0>         0.1288
     42 H13         0.7184   -5.2684   -0.7900 H         1 <0>         0.1388
     43 H14        -0.3000   -2.9213   -0.4381 H         1 <0>         0.1674
     44 H15         3.9366   -8.3847   -1.7037 H         1 <0>         0.1573
     45 H16         4.8321   -6.8680   -1.4472 H         1 <0>         0.1150
     46 H17         5.9604   -9.3433    2.1588 H         1 <0>         0.3896
     47 H18         5.7482   -7.2985    2.9510 H         1 <0>         0.4732
     48 H19         5.0210   -6.0607    0.6496 H         1 <0>         0.3829
     49 H20         4.9970  -10.2795   -1.1321 H         1 <0>         0.1657
     50 H21         6.5013  -10.7462   -0.3030 H         1 <0>         0.1743
     51 H22         3.3370   -9.3964    1.4438 H         1 <0>         0.1503
     52 H23         3.0132  -10.1867   -0.1335 H         1 <0>         0.1326
     53 H24         2.6869  -11.3578    2.6852 H         1 <0>         0.1015
     54 H25         1.5203  -11.3946    1.3225 H         1 <0>         0.1232
     55 H26         3.3036  -13.4721    1.8824 H         1 <0>         0.1143
     56 H27         2.6470  -13.1441    0.2503 H         1 <0>         0.1109
     57 H28         4.7260  -12.5086   -0.4682 H         1 <0>         0.1399
     58 H29         5.3886  -12.8720    1.1505 H         1 <0>         0.1432
     59 H30         2.3269   -2.5420   -5.1813 H         1 <0>         0.4597
     60 H31         6.7540   -6.6610    1.8032 H         1 <0>         0.4544
     61 H32         5.2036  -10.7237    1.7658 H         1 <0>         0.4135
@<TRIPOS>BOND
     1    1    2 1
     2    1   32 1
     3    1   33 1
     4    1   34 1
     5    2    3 1
     6    3   16 ar
     7    3    4 ar
     8    4    5 ar
     9    4   35 1
    10    5    6 ar
    11    5   36 1
    12    6   15 ar
    13    6    7 2
    14    7    8 1
    15    7   59 1
    16    8    9 1
    17    8   14 1
    18    8   10 1
    19   10   11 1
    20   10   37 1
    21   10   38 1
    22   11   12 1
    23   11   39 1
    24   11   40 1
    25   12   13 1
    26   12   17 am
    27   13   14 1
    28   13   41 1
    29   13   42 1
    30   14   15 2
    31   15   16 ar
    32   16   43 1
    33   17   18 2
    34   17   19 1
    35   19   20 1
    36   19   44 1
    37   19   45 1
    38   20   25 1
    39   20   21 1
    40   21   22 1
    41   21   23 1
    42   21   26 1
    43   23   24 1
    44   23   46 1
    45   24   25 1
    46   24   47 1
    47   24   60 1
    48   25   48 1
    49   26   27 1
    50   26   49 1
    51   26   50 1
    52   27   31 1
    53   27   28 1
    54   27   61 1
    55   28   29 1
    56   28   51 1
    57   28   52 1
    58   29   30 1
    59   29   53 1
    60   29   54 1
    61   30   31 1
    62   30   55 1
    63   30   56 1
    64   31   57 1
    65   31   58 1
@<TRIPOS>MOLECULE
ZINC08780811
   56    58     0     0     0
SMALL
USER_CHARGES
N-[(3-allyl-2-hydroxy-phenyl)methyleneamino]-1-[(4-bromophenyl)methyl]piperidine-4-carboxamide
@<TRIPOS>ATOM
      1 C1          4.0313    3.9202    1.8802 C.2       1 <0>        -0.1900
      2 C2          2.8597    4.2741    1.4132 C.2       1 <0>        -0.1471
      3 C3          2.4744    3.9219   -0.0005 C.3       1 <0>        -0.0488
      4 C4          1.1721    3.1637    0.0079 C.ar      1 <0>        -0.1096
      5 C5          1.1783    1.7812    0.0004 C.ar      1 <0>        -0.0765
      6 C6         -0.0126    1.0758    0.0080 C.ar      1 <0>        -0.1290
      7 C7         -1.2180    1.7463    0.0173 C.ar      1 <0>        -0.0753
      8 C8         -1.2378    3.1425    0.0303 C.ar      1 <0>        -0.0962
      9 C9         -0.0291    3.8527    0.0226 C.ar      1 <0>         0.1523
     10 O1         -0.0362    5.2107    0.0299 O.3       1 <0>        -0.4689
     11 C10        -2.5220    3.8653    0.0460 C.2       1 <0>         0.1243
     12 N1         -2.5362    5.1632    0.0527 N.2       1 <0>        -0.2139
     13 N2         -3.7570    5.8503    0.0676 N.am      1 <0>        -0.5868
     14 C11        -3.7717    7.1980    0.0746 C.2       1 <0>         0.5331
     15 O2         -2.7278    7.8160    0.0679 O.2       1 <0>        -0.4854
     16 C12        -5.0849    7.9371    0.0906 C.3       1 <0>        -0.1158
     17 C13        -5.8931    7.5717   -1.1575 C.3       1 <0>        -0.1410
     18 C14        -7.1981    8.3710   -1.1664 C.3       1 <0>        -0.0044
     19 C15        -6.1589   10.1907    0.0505 C.3       1 <0>        -0.0002
     20 C16        -4.8229    9.4458    0.0958 C.3       1 <0>        -0.1294
     21 C17        -8.1181   10.6056   -1.3096 C.3       1 <0>         0.0478
     22 C18        -8.7136   10.3642   -2.6727 C.ar      1 <0>        -0.1512
     23 C19        -8.3464   11.1642   -3.7387 C.ar      1 <0>        -0.0858
     24 C20        -8.8887   10.9400   -4.9902 C.ar      1 <0>        -0.0861
     25 C21        -9.8068    9.9218   -5.1736 C.ar      1 <0>        -0.0635
     26 C22       -10.1779    9.1250   -4.1056 C.ar      1 <0>        -0.0875
     27 C23        -9.6311    9.3465   -2.8556 C.ar      1 <0>        -0.0903
     28 Br1       -10.5540    9.6189   -6.8841 Br        1 <0>        -0.0159
     29 H1          4.7211    3.3761    1.2522 H         1 <0>         0.0974
     30 H2          4.3075    4.1726    2.8934 H         1 <0>         0.0994
     31 H3          2.1699    4.8182    2.0413 H         1 <0>         0.1100
     32 H4          3.2528    3.3022   -0.4456 H         1 <0>         0.0784
     33 H5          2.3592    4.8354   -0.5840 H         1 <0>         0.0833
     34 H6          2.1177    1.2486   -0.0111 H         1 <0>         0.1315
     35 H7          0.0021   -0.0041    0.0020 H         1 <0>         0.1338
     36 H8         -2.1451    1.1922    0.0184 H         1 <0>         0.1326
     37 H9         -0.0464    5.6088   -0.8513 H         1 <0>         0.3887
     38 H10        -3.4513    3.3151    0.0519 H         1 <0>         0.1215
     39 H11        -4.5917    5.3562    0.0729 H         1 <0>         0.3808
     40 H12        -5.6469    7.6620    0.9831 H         1 <0>         0.1192
     41 H13        -5.3136    7.8110   -2.0492 H         1 <0>         0.0969
     42 H14        -6.1194    6.5055   -1.1452 H         1 <0>         0.1145
     43 H15        -7.7832    8.1209   -0.2815 H         1 <0>         0.1356
     44 H16        -7.7693    8.1237   -2.0612 H         1 <0>         0.1336
     45 H17        -6.7489    9.9321    0.9298 H         1 <0>         0.1345
     46 H18        -5.9755   11.2651    0.0397 H         1 <0>         0.1367
     47 H19        -4.2847    9.7185    1.0035 H         1 <0>         0.1234
     48 H20        -4.2267    9.7146   -0.7762 H         1 <0>         0.0995
     49 H21        -8.8361   10.3148   -0.5428 H         1 <0>         0.1407
     50 H22        -7.8780   11.6632   -1.2001 H         1 <0>         0.1400
     51 H23        -7.6326   11.9617   -3.5945 H         1 <0>         0.1420
     52 H24        -8.5984   11.5622   -5.8239 H         1 <0>         0.1468
     53 H25       -10.8945    8.3297   -4.2484 H         1 <0>         0.1464
     54 H26        -9.9206    8.7242   -2.0217 H         1 <0>         0.1409
     55 N3         -6.8767    9.8140   -1.1857 N.4       1 <0>        -0.3953
     56 H27        -6.2742   10.0102   -1.9936 H         1 <0>         0.4283
@<TRIPOS>BOND
     1    1    2 2
     2    1   29 1
     3    1   30 1
     4    2    3 1
     5    2   31 1
     6    3    4 1
     7    3   32 1
     8    3   33 1
     9    4    9 ar
    10    4    5 ar
    11    5    6 ar
    12    5   34 1
    13    6    7 ar
    14    6   35 1
    15    7    8 ar
    16    7   36 1
    17    8    9 ar
    18    8   11 1
    19    9   10 1
    20   10   37 1
    21   11   12 2
    22   11   38 1
    23   12   13 1
    24   13   14 am
    25   13   39 1
    26   14   15 2
    27   14   16 1
    28   16   20 1
    29   16   17 1
    30   16   40 1
    31   17   18 1
    32   17   41 1
    33   17   42 1
    34   18   43 1
    35   18   44 1
    36   18   55 1
    37   19   20 1
    38   19   45 1
    39   19   46 1
    40   19   55 1
    41   20   47 1
    42   20   48 1
    43   21   22 1
    44   21   49 1
    45   21   50 1
    46   21   55 1
    47   22   27 ar
    48   22   23 ar
    49   23   24 ar
    50   23   51 1
    51   24   25 ar
    52   24   52 1
    53   25   26 ar
    54   25   28 1
    55   26   27 ar
    56   26   53 1
    57   27   54 1
    58   55   56 1
@<TRIPOS>MOLECULE
ZINC14965844
   67    70     0     0     0
SMALL
USER_CHARGES
5-[1-(2,2-dimethylpropyl)-4-hydroxy-4-piperidyl]-N-[2-(2-fluorophenyl)ethyl]benzofuran-2-carboxamide
@<TRIPOS>ATOM
      1 C1         -9.0172    5.5613   -1.1588 C.3       1 <0>        -0.1619
      2 C2         -9.6645    4.5787   -0.1809 C.3       1 <0>        -0.0887
      3 C3        -11.1828    4.7673   -0.1984 C.3       1 <0>        -0.1463
      4 C4         -9.1344    4.8399    1.2304 C.3       1 <0>        -0.1743
      5 C5         -9.3238    3.1462   -0.5967 C.3       1 <0>         0.0015
      6 C6         -7.4327    2.5719    0.8014 C.3       1 <0>        -0.0207
      7 C7         -5.9039    2.5240    0.8511 C.3       1 <0>        -0.1340
      8 C8         -5.3963    1.5091   -0.1769 C.3       1 <0>         0.1791
      9 C9         -5.9038    1.9029   -1.5668 C.3       1 <0>        -0.1725
     10 C10        -7.4326    1.9704   -1.5460 C.3       1 <0>         0.0018
     11 C11        -3.8893    1.5008   -0.1747 C.ar      1 <0>        -0.1449
     12 C12        -3.1939    2.6577    0.1503 C.ar      1 <0>        -0.0826
     13 C13        -1.8160    2.6726    0.1581 C.ar      1 <0>        -0.0967
     14 C14        -1.1096    1.5189   -0.1623 C.ar      1 <0>         0.0799
     15 C15        -1.8195    0.3508   -0.4971 C.ar      1 <0>        -0.1348
     16 C16        -3.2166    0.3551   -0.4929 C.ar      1 <0>        -0.0416
     17 C17        -0.8041   -0.6653   -0.7710 C.2       1 <0>        -0.1123
     18 C18         0.3962   -0.0542   -0.5969 C.2       1 <0>        -0.0135
     19 O1          0.2046    1.2326   -0.2383 O.3       1 <0>        -0.1806
     20 C19         1.7061   -0.6970   -0.7733 C.2       1 <0>         0.5970
     21 O2          1.7704   -1.8670   -1.1003 O.2       1 <0>        -0.5041
     22 N1          2.8360    0.0097   -0.5726 N.am      1 <0>        -0.7144
     23 C20         4.1417   -0.6310   -0.7484 C.3       1 <0>         0.1219
     24 C21         5.2504    0.3836   -0.4617 C.3       1 <0>        -0.0905
     25 C22         6.5935   -0.2755   -0.6425 C.ar      1 <0>        -0.1223
     26 C23         7.2566   -0.8045    0.4488 C.ar      1 <0>        -0.0846
     27 C24         8.4859   -1.4142    0.2824 C.ar      1 <0>        -0.1265
     28 C25         9.0590   -1.4855   -0.9739 C.ar      1 <0>        -0.0875
     29 C26         8.4006   -0.9523   -2.0655 C.ar      1 <0>        -0.1510
     30 C27         7.1663   -0.3463   -1.9008 C.ar      1 <0>         0.1032
     31 F1          6.5219    0.1757   -2.9673 F         1 <0>        -0.1369
     32 O3         -5.8815    0.2072    0.1575 O.3       1 <0>        -0.5475
     33 H1         -9.4577    5.4331   -2.1476 H         1 <0>         0.0765
     34 H2         -9.1872    6.5815   -0.8147 H         1 <0>         0.0867
     35 H3         -7.9455    5.3692   -1.2108 H         1 <0>         0.0470
     36 H4        -11.6439    4.0673    0.4983 H         1 <0>         0.0689
     37 H5        -11.4255    5.7878    0.0978 H         1 <0>         0.0778
     38 H6        -11.5604    4.5813   -1.2038 H         1 <0>         0.0687
     39 H7         -8.0445    4.8454    1.2139 H         1 <0>         0.0606
     40 H8         -9.4973    5.8057    1.5819 H         1 <0>         0.0856
     41 H9         -9.4837    4.0546    1.9008 H         1 <0>         0.0748
     42 H10        -9.6796    2.9681   -1.6114 H         1 <0>         0.1306
     43 H11        -9.8053    2.4456    0.0855 H         1 <0>         0.1336
     44 H12        -7.8351    1.5892    1.0473 H         1 <0>         0.1394
     45 H13        -7.7967    3.3042    1.5221 H         1 <0>         0.1446
     46 H14        -5.5815    2.2243    1.8483 H         1 <0>         0.1238
     47 H15        -5.5006    3.5097    0.6192 H         1 <0>         0.1020
     48 H16        -5.5010    2.8787   -1.8383 H         1 <0>         0.0994
     49 H17        -5.5812    1.1598   -2.2961 H         1 <0>         0.1173
     50 H18        -7.8350    0.9905   -1.2891 H         1 <0>         0.1367
     51 H19        -7.7963    2.2657   -2.5302 H         1 <0>         0.1294
     52 H20        -3.7390    3.5559    0.4001 H         1 <0>         0.1383
     53 H21        -1.2861    3.5787    0.4122 H         1 <0>         0.1429
     54 H22        -3.7624   -0.5421   -0.7450 H         1 <0>         0.1319
     55 H23        -0.9741   -1.6925   -1.0582 H         1 <0>         0.1758
     56 H24         2.7848    0.9426   -0.3118 H         1 <0>         0.4084
     57 H25         4.2302   -1.4705   -0.0588 H         1 <0>         0.0798
     58 H26         4.2348   -0.9911   -1.7730 H         1 <0>         0.0777
     59 H27         5.1619    1.2231   -1.1513 H         1 <0>         0.0850
     60 H28         5.1574    0.7437    0.5629 H         1 <0>         0.0880
     61 H29         6.8120   -0.7454    1.4313 H         1 <0>         0.1338
     62 H30         9.0012   -1.8312    1.1350 H         1 <0>         0.1329
     63 H31        10.0217   -1.9579   -1.1020 H         1 <0>         0.1356
     64 H32         8.8486   -1.0079   -3.0466 H         1 <0>         0.1379
     65 H33        -5.5995   -0.4867   -0.4542 H         1 <0>         0.3905
     66 N2         -7.8561    2.9819   -0.5543 N.4       1 <0>        -0.3947
     67 H34        -7.4134    3.8794   -0.7842 H         1 <0>         0.4194
@<TRIPOS>BOND
     1    1    2 1
     2    1   33 1
     3    1   34 1
     4    1   35 1
     5    2    3 1
     6    2    4 1
     7    2    5 1
     8    3   36 1
     9    3   37 1
    10    3   38 1
    11    4   39 1
    12    4   40 1
    13    4   41 1
    14    5   42 1
    15    5   43 1
    16    5   66 1
    17    6    7 1
    18    6   44 1
    19    6   45 1
    20    6   66 1
    21    7    8 1
    22    7   46 1
    23    7   47 1
    24    8    9 1
    25    8   11 1
    26    8   32 1
    27    9   10 1
    28    9   48 1
    29    9   49 1
    30   10   50 1
    31   10   51 1
    32   10   66 1
    33   11   16 ar
    34   11   12 ar
    35   12   13 ar
    36   12   52 1
    37   13   14 ar
    38   13   53 1
    39   14   19 1
    40   14   15 ar
    41   15   16 ar
    42   15   17 1
    43   16   54 1
    44   17   18 2
    45   17   55 1
    46   18   19 1
    47   18   20 1
    48   20   21 2
    49   20   22 am
    50   22   23 1
    51   22   56 1
    52   23   24 1
    53   23   57 1
    54   23   58 1
    55   24   25 1
    56   24   59 1
    57   24   60 1
    58   25   30 ar
    59   25   26 ar
    60   26   27 ar
    61   26   61 1
    62   27   28 ar
    63   27   62 1
    64   28   29 ar
    65   28   63 1
    66   29   30 ar
    67   29   64 1
    68   30   31 1
    69   32   65 1
    70   66   67 1
@<TRIPOS>MOLECULE
ZINC25337488
   62    66     0     0     0
SMALL
USER_CHARGES
N-[2-(3-pyridyl)ethyl]-N'-[8-(3-thienyl)-2-(trifluoromethyl)-1,6-naphthyridin-5-yl]cyclohexane-1,4-diamine
@<TRIPOS>ATOM
      1 C1         -2.6139   10.9944   13.5109 C.ar      1 <0>        -0.1665
      2 C2         -2.8838    9.6577   13.2594 C.ar      1 <0>        -0.0641
      3 C3         -3.9191    9.3456   12.3920 C.ar      1 <0>        -0.1637
      4 C4         -4.6498   10.3696   11.8191 C.ar      1 <0>         0.1127
      5 N1         -4.3677   11.6299   12.0850 N.ar      1 <0>        -0.4783
      6 C5         -3.3867   11.9639   12.9007 C.ar      1 <0>         0.1163
      7 C6         -4.2478    7.9078   12.0823 C.3       1 <0>        -0.0950
      8 C7         -3.4431    7.4518   10.8636 C.3       1 <0>        -0.0008
      9 N2         -3.7635    6.0503   10.5617 N.4       1 <0>        -0.5405
     10 C8         -3.0075    5.5770    9.3945 C.3       1 <0>         0.0316
     11 C9         -2.8570    4.0562    9.4667 C.3       1 <0>        -0.1347
     12 C10        -2.0695    3.5632    8.2511 C.3       1 <0>        -0.1275
     13 C11        -2.8177    3.9415    6.9712 C.3       1 <0>         0.1543
     14 C12        -2.9682    5.4623    6.8989 C.3       1 <0>        -0.1289
     15 C13        -3.7557    5.9552    8.1146 C.3       1 <0>        -0.1362
     16 N3         -2.0637    3.4695    5.8072 N.pl3     1 <0>        -0.7216
     17 C14        -2.7192    3.2149    4.6145 C.ar      1 <0>         0.4479
     18 C15        -1.9915    2.7600    3.4931 C.ar      1 <0>        -0.1731
     19 C16        -0.6047    2.5523    3.5401 C.ar      1 <0>        -0.0219
     20 C17         0.0185    2.1105    2.4049 C.ar      1 <0>        -0.1529
     21 C18        -0.7223    1.8808    1.2496 C.ar      1 <0>         0.1007
     22 N4         -2.0197    2.0818    1.2104 N.ar      1 <0>        -0.4220
     23 C19        -2.6834    2.5062    2.2836 C.ar      1 <0>         0.2015
     24 C20        -4.0849    2.7243    2.2615 C.ar      1 <0>        -0.1003
     25 C21        -4.7041    3.1711    3.4137 C.ar      1 <0>         0.1628
     26 N5         -4.0234    3.3978    4.5273 N.ar      1 <0>        -0.5468
     27 C22        -4.8692    2.4785    1.0279 C.2       1 <0>        -0.0815
     28 C23        -6.0240    1.7020    1.0611 C.2       1 <0>        -0.1481
     29 C24        -6.7150    1.5044   -0.0842 C.2       1 <0>        -0.1725
     30 S1         -5.7413    2.4096   -1.2749 S.3       1 <0>         0.0545
     31 C25        -4.4719    3.0047   -0.1701 C.2       1 <0>        -0.1321
     32 C26        -0.0169    1.3948    0.0097 C.3       1 <0>         0.5194
     33 F1          0.0021   -0.0041    0.0020 F         1 <0>        -0.1647
     34 F2          1.2956    1.8790   -0.0002 F         1 <0>        -0.1666
     35 F3         -0.6935    1.8582   -1.1237 F         1 <0>        -0.1588
     36 H1         -1.8124   11.2742   14.1786 H         1 <0>         0.1438
     37 H2         -2.2987    8.8784   13.7251 H         1 <0>         0.1369
     38 H3         -5.4608   10.1347   11.1458 H         1 <0>         0.1558
     39 H4         -3.1854   13.0071   13.0944 H         1 <0>         0.1644
     40 H5         -3.9914    7.2786   12.9474 H         1 <0>         0.0977
     41 H6         -5.3227    7.8155   11.8675 H         1 <0>         0.0999
     42 H7         -3.6995    8.0811    9.9986 H         1 <0>         0.1300
     43 H8         -2.3682    7.5441   11.0784 H         1 <0>         0.1286
     44 H9         -3.5072    5.4210   11.4268 H         1 <0>         0.4486
     45 H10        -2.0218    6.0644    9.4240 H         1 <0>         0.1328
     46 H11        -2.3191    3.7843   10.3869 H         1 <0>         0.0935
     47 H12        -3.8529    3.5890    9.4725 H         1 <0>         0.0935
     48 H13        -1.0736    4.0303    8.2454 H         1 <0>         0.0805
     49 H14        -1.9614    2.4698    8.3031 H         1 <0>         0.0926
     50 H15        -3.8027    3.4529    6.9394 H         1 <0>         0.1011
     51 H16        -1.9723    5.9294    6.8931 H         1 <0>         0.0736
     52 H17        -3.5061    5.7342    5.9787 H         1 <0>         0.0914
     53 H18        -4.7516    5.4880    8.1204 H         1 <0>         0.0930
     54 H19        -3.8640    7.0486    8.0626 H         1 <0>         0.0880
     55 H20        -0.9768    3.3174    5.8808 H         1 <0>         0.4302
     56 H21        -0.0454    2.7361    4.4455 H         1 <0>         0.1482
     57 H22         1.0849    1.9397    2.4057 H         1 <0>         0.1568
     58 H23        -5.7709    3.3394    3.4060 H         1 <0>         0.1665
     59 H24        -6.3653    1.2671    1.9889 H         1 <0>         0.1324
     60 H25        -7.6222    0.9394   -0.2396 H         1 <0>         0.1877
     61 H26        -3.6129    3.6210   -0.3907 H         1 <0>         0.1812
     62 H27        -4.8383    5.9580   10.3468 H         1 <0>         0.4486
@<TRIPOS>BOND
     1    1    6 ar
     2    1    2 ar
     3    1   36 1
     4    2    3 ar
     5    2   37 1
     6    3    4 ar
     7    3    7 1
     8    4    5 ar
     9    4   38 1
    10    5    6 ar
    11    6   39 1
    12    7    8 1
    13    7   40 1
    14    7   41 1
    15    8    9 1
    16    8   42 1
    17    8   43 1
    18    9   10 1
    19    9   44 1
    20    9   62 1
    21   10   15 1
    22   10   11 1
    23   10   45 1
    24   11   12 1
    25   11   46 1
    26   11   47 1
    27   12   13 1
    28   12   48 1
    29   12   49 1
    30   13   14 1
    31   13   16 1
    32   13   50 1
    33   14   15 1
    34   14   51 1
    35   14   52 1
    36   15   53 1
    37   15   54 1
    38   16   17 1
    39   16   55 1
    40   17   26 ar
    41   17   18 ar
    42   18   23 ar
    43   18   19 ar
    44   19   20 ar
    45   19   56 1
    46   20   21 ar
    47   20   57 1
    48   21   22 ar
    49   21   32 1
    50   22   23 ar
    51   23   24 ar
    52   24   25 ar
    53   24   27 1
    54   25   26 ar
    55   25   58 1
    56   27   31 2
    57   27   28 1
    58   28   29 2
    59   28   59 1
    60   29   30 1
    61   29   60 1
    62   30   31 1
    63   31   61 1
    64   32   33 1
    65   32   34 1
    66   32   35 1
@<TRIPOS>MOLECULE
ZINC39485080
   62    67     0     0     0
SMALL
USER_CHARGES

@<TRIPOS>ATOM
      1 C1         -0.0167    1.3837    0.0096 C.ar      1 <0>        -0.1319
      2 C2          0.0021   -0.0041    0.0020 C.ar      1 <0>        -0.0931
      3 C3         -1.1734   -0.7229    0.0089 C.ar      1 <0>        -0.1219
      4 C4         -2.3924   -0.0535    0.0242 C.ar      1 <0>         0.0942
      5 N1         -3.7041   -0.4723    0.0336 N.pl3     1 <0>        -0.5880
      6 C5         -4.5386    0.6120    0.0473 C.2       1 <0>         0.0850
      7 C6         -3.8178    1.7444    0.0473 C.2       1 <0>        -0.2055
      8 C7         -2.4061    1.3535    0.0323 C.ar      1 <0>        -0.1005
      9 C8         -1.2031    2.0617    0.0303 C.ar      1 <0>        -0.0843
     10 C9         -4.3583    3.1511    0.0598 C.3       1 <0>        -0.0577
     11 C10        -4.4370    3.6799   -1.3738 C.3       1 <0>        -0.0125
     12 N2         -4.9638    5.0511   -1.3616 N.4       1 <0>        -0.5060
     13 C11        -5.0394    5.5589   -2.7380 C.3       1 <0>         0.0282
     14 H1         -5.6275    4.8748   -3.3498 H         1 <0>         0.1467
     15 C12        -5.6922    6.9452   -2.7415 C.3       1 <0>        -0.1397
     16 C13        -5.9911    7.3640   -4.1803 C.3       1 <0>        -0.0588
     17 C14        -4.7246    7.2314   -5.0175 C.2       1 <0>        -0.0917
     18 C15        -3.6904    6.4861   -4.5845 C.2       1 <0>        -0.1298
     19 C16        -3.6257    5.6868   -3.3197 C.3       1 <0>        -0.0587
     20 S1         -2.3845    6.6522   -5.7930 S.3       1 <0>        -0.0904
     21 C17        -3.0316    8.1607   -6.6308 C.3       1 <0>         0.1161
     22 H2         -2.6702    9.0976   -6.2071 H         1 <0>         0.1366
     23 C18        -4.5206    7.8457   -6.3341 C.3       1 <0>        -0.1447
     24 H3         -4.6229    6.9715   -6.9770 H         1 <0>         0.1135
     25 C19        -5.4156    8.7729   -7.0280 C.2       1 <0>         0.5574
     26 O1         -6.4465    9.1784   -6.5351 O.2       1 <0>        -0.4746
     27 N3         -4.9963    9.1480   -8.2802 N.am      1 <0>        -0.5897
     28 C20        -3.8712    8.5525   -8.8098 C.2       1 <0>         0.3752
     29 N4         -2.8945    8.0781   -8.0845 N.2       1 <0>        -0.5060
     30 C21        -5.7312   10.1622   -9.0401 C.3       1 <0>         0.1517
     31 C22        -5.1748   11.5269   -8.7254 C.ar      1 <0>        -0.0960
     32 C23        -5.6962   12.2605   -7.6757 C.ar      1 <0>        -0.1087
     33 C24        -5.1869   13.5124   -7.3859 C.ar      1 <0>        -0.0904
     34 C25        -4.1558   14.0324   -8.1455 C.ar      1 <0>        -0.1418
     35 C26        -3.6330   13.2988   -9.1966 C.ar      1 <0>         0.1012
     36 C27        -4.1400   12.0422   -9.4823 C.ar      1 <0>        -0.1362
     37 F1         -2.6255   13.8063   -9.9401 F         1 <0>        -0.1339
     38 H4          0.9136    1.9321    0.0037 H         1 <0>         0.1271
     39 H5          0.9476   -0.5258   -0.0098 H         1 <0>         0.1315
     40 H6         -1.1483   -1.8026    0.0022 H         1 <0>         0.1254
     41 H7         -5.6175    0.5639    0.0568 H         1 <0>         0.1729
     42 H8         -3.9934   -1.3981    0.0305 H         1 <0>         0.4231
     43 H9         -1.2101    3.1417    0.0361 H         1 <0>         0.1181
     44 H10        -5.3540    3.1538    0.5032 H         1 <0>         0.0919
     45 H11        -3.6975    3.7891    0.6466 H         1 <0>         0.0924
     46 H12        -3.4412    3.6772   -1.8172 H         1 <0>         0.1330
     47 H13        -5.0978    3.0420   -1.9607 H         1 <0>         0.1326
     48 H14        -5.8856    5.0536   -0.9512 H         1 <0>         0.4305
     49 H15        -6.6214    6.9106   -2.1727 H         1 <0>         0.0982
     50 H16        -5.0143    7.6672   -2.2862 H         1 <0>         0.0949
     51 H17        -6.7685    6.7207   -4.5924 H         1 <0>         0.0922
     52 H18        -6.3299    8.3999   -4.1948 H         1 <0>         0.1089
     53 H19        -2.9802    6.1924   -2.6016 H         1 <0>         0.1078
     54 H20        -3.2284    4.6947   -3.5343 H         1 <0>         0.1086
     55 H21        -3.7875    8.4819   -9.8842 H         1 <0>         0.2024
     56 H22        -5.6260    9.9641  -10.1068 H         1 <0>         0.1096
     57 H23        -6.7858   10.1279   -8.7665 H         1 <0>         0.1104
     58 H24        -6.5023   11.8553   -7.0821 H         1 <0>         0.1331
     59 H25        -5.5949   14.0845   -6.5658 H         1 <0>         0.1368
     60 H26        -3.7585   15.0109   -7.9193 H         1 <0>         0.1399
     61 H27        -3.7299   11.4671  -10.2993 H         1 <0>         0.1384
     62 H28        -4.3521    5.6417   -0.8184 H         1 <0>         0.4273
@<TRIPOS>BOND
     1    1    2 ar
     2    1   38 1
     3    1    9 ar
     4    2    3 ar
     5    2   39 1
     6    3    4 ar
     7    3   40 1
     8    4    5 1
     9    4    8 ar
    10    5   42 1
    11    5    6 1
    12    6    7 2
    13    6   41 1
    14    7    8 1
    15    7   10 1
    16    8    9 ar
    17    9   43 1
    18   10   11 1
    19   10   44 1
    20   10   45 1
    21   11   12 1
    22   11   46 1
    23   11   47 1
    24   12   13 1
    25   12   48 1
    26   12   62 1
    27   13   14 1
    28   13   19 1
    29   13   15 1
    30   15   16 1
    31   15   49 1
    32   15   50 1
    33   16   17 1
    34   16   51 1
    35   16   52 1
    36   17   23 1
    37   17   18 2
    38   18   19 1
    39   18   20 1
    40   19   53 1
    41   19   54 1
    42   20   21 1
    43   21   22 1
    44   21   29 1
    45   21   23 1
    46   23   24 1
    47   23   25 1
    48   25   26 2
    49   25   27 am
    50   27   28 1
    51   27   30 1
    52   28   29 2
    53   28   55 1
    54   30   31 1
    55   30   56 1
    56   30   57 1
    57   31   36 ar
    58   31   32 ar
    59   32   33 ar
    60   32   58 1
    61   33   34 ar
    62   33   59 1
    63   34   35 ar
    64   34   60 1
    65   35   36 ar
    66   35   37 1
    67   36   61 1
@<TRIPOS>MOLECULE
ZINC59095756
   65    67     0     0     0
SMALL
USER_CHARGES

@<TRIPOS>ATOM
      1 C1          2.1483   -1.3422    1.1220 C.3       1 <0>        -0.1236
      2 C2          0.8773   -1.2791    0.3148 C.ar      1 <0>        -0.0684
      3 C3          0.8718   -1.7051   -1.0005 C.ar      1 <0>        -0.1073
      4 C4         -0.2939   -1.6472   -1.7408 C.ar      1 <0>        -0.1038
      5 C5         -1.4546   -1.1637   -1.1658 C.ar      1 <0>        -0.1163
      6 C6         -1.4494   -0.7387    0.1493 C.ar      1 <0>        -0.1205
      7 C7         -0.2843   -0.8006    0.8911 C.ar      1 <0>        -0.1144
      8 C8         -0.2798   -0.3421    2.3267 C.3       1 <0>         0.1201
      9 N1         -1.6441    0.0039    2.7331 N.pl3     1 <0>        -0.5257
     10 C9         -2.4813   -0.9907    3.4158 C.3       1 <0>         0.1420
     11 C10        -2.8497   -0.4682    4.8057 C.3       1 <0>        -0.1796
     12 C11        -3.7321   -1.4878    5.5251 C.3       1 <0>         0.0680
     13 N2         -4.9009   -1.8530    4.7386 N.4       1 <0>        -0.4893
     14 C12        -4.6972   -2.1736    3.3349 C.3       1 <0>         0.0713
     15 C13        -3.7716   -1.1934    2.6222 C.3       1 <0>        -0.1825
     16 C14        -6.0753   -2.0938    2.6358 C.3       1 <0>        -0.1791
     17 C15        -4.1849   -3.6044    3.1494 C.3       1 <0>        -0.1772
     18 C16        -2.9067   -2.7084    5.9305 C.3       1 <0>        -0.1733
     19 C17        -4.2347   -0.8214    6.8267 C.3       1 <0>        -0.1785
     20 C18        -2.1308    1.2350    2.4803 C.2       1 <0>         0.5691
     21 S1         -3.6770    1.6809    3.0647 S.2       1 <0>        -0.5306
     22 N3         -1.4003    2.1152    1.7675 N.pl3     1 <0>        -0.6867
     23 C19        -0.2776    2.7201    2.3424 C.ar      1 <0>         0.2329
     24 C20         0.1294    2.3594    3.6206 C.ar      1 <0>        -0.1879
     25 C21         1.2383    2.9581    4.1851 C.ar      1 <0>        -0.0400
     26 C22         1.9433    3.9161    3.4795 C.ar      1 <0>        -0.1452
     27 C23         1.5408    4.2774    2.2070 C.ar      1 <0>        -0.0251
     28 C24         0.4358    3.6782    1.6344 C.ar      1 <0>        -0.2243
     29 C25         0.0011    4.0684    0.2452 C.3       1 <0>         0.5056
     30 F1          0.8693    5.0430   -0.2585 F         1 <0>        -0.1671
     31 F2          0.0303    2.9434   -0.5858 F         1 <0>        -0.1767
     32 F3         -1.2997    4.5812    0.2904 F         1 <0>        -0.1717
     33 H1          2.1710   -2.2710    1.6920 H         1 <0>         0.0756
     34 H2          3.0068   -1.3064    0.4513 H         1 <0>         0.0760
     35 H3          2.1865   -0.4948    1.8065 H         1 <0>         0.0657
     36 H4          1.7785   -2.0827   -1.4495 H         1 <0>         0.1300
     37 H5         -0.2980   -1.9793   -2.7684 H         1 <0>         0.1288
     38 H6         -2.3654   -1.1178   -1.7445 H         1 <0>         0.1249
     39 H7         -2.3560   -0.3607    0.5983 H         1 <0>         0.1116
     40 H8          0.0966   -1.1432    2.9628 H         1 <0>         0.1103
     41 H9          0.3621    0.5332    2.4265 H         1 <0>         0.1143
     42 H10        -1.9307   -1.9239    3.4918 H         1 <0>         0.1139
     43 H11        -1.9392   -0.3032    5.3844 H         1 <0>         0.1057
     44 H12        -3.3883    0.4757    4.7087 H         1 <0>         0.1499
     45 H13        -5.3547   -2.6513    5.1892 H         1 <0>         0.4241
     46 H14        -4.2796   -0.2322    2.5073 H         1 <0>         0.1449
     47 H15        -3.5282   -1.5792    1.6288 H         1 <0>         0.1083
     48 H16        -6.4789   -1.0869    2.7420 H         1 <0>         0.0855
     49 H17        -5.9602   -2.3293    1.5777 H         1 <0>         0.1045
     50 H18        -6.7577   -2.8091    3.0950 H         1 <0>         0.0833
     51 H19        -4.9467   -4.3091    3.4826 H         1 <0>         0.0850
     52 H20        -3.9652   -3.7779    2.0960 H         1 <0>         0.1024
     53 H21        -3.2779   -3.7446    3.7375 H         1 <0>         0.0795
     54 H22        -2.1650   -2.4150    6.6734 H         1 <0>         0.1044
     55 H23        -3.5645   -3.4675    6.3539 H         1 <0>         0.0829
     56 H24        -2.4020   -3.1133    5.0534 H         1 <0>         0.0790
     57 H25        -4.8064    0.0731    6.5795 H         1 <0>         0.0852
     58 H26        -4.8704   -1.5201    7.3705 H         1 <0>         0.0828
     59 H27        -3.3817   -0.5475    7.4475 H         1 <0>         0.1047
     60 H28        -1.6530    2.3292    0.8558 H         1 <0>         0.4322
     61 H29        -0.4211    1.6118    4.1724 H         1 <0>         0.1274
     62 H30         1.5553    2.6781    5.1789 H         1 <0>         0.1408
     63 H31         2.8099    4.3834    3.9235 H         1 <0>         0.1439
     64 H32         2.0934    5.0259    1.6586 H         1 <0>         0.1494
     65 H33        -5.5794   -1.0895    4.7990 H         1 <0>         0.4291
@<TRIPOS>BOND
     1    1    2 1
     2    1   33 1
     3    1   34 1
     4    1   35 1
     5    2    7 ar
     6    2    3 ar
     7    3    4 ar
     8    3   36 1
     9    4    5 ar
    10    4   37 1
    11    5    6 ar
    12    5   38 1
    13    6    7 ar
    14    6   39 1
    15    7    8 1
    16    8    9 1
    17    8   40 1
    18    8   41 1
    19    9   10 1
    20    9   20 1
    21   10   15 1
    22   10   11 1
    23   10   42 1
    24   11   12 1
    25   11   43 1
    26   11   44 1
    27   12   13 1
    28   12   18 1
    29   12   19 1
    30   13   14 1
    31   13   45 1
    32   13   65 1
    33   14   15 1
    34   14   16 1
    35   14   17 1
    36   15   46 1
    37   15   47 1
    38   16   48 1
    39   16   49 1
    40   16   50 1
    41   17   51 1
    42   17   52 1
    43   17   53 1
    44   18   54 1
    45   18   55 1
    46   18   56 1
    47   19   57 1
    48   19   58 1
    49   19   59 1
    50   20   21 2
    51   20   22 1
    52   22   23 1
    53   22   60 1
    54   23   28 ar
    55   23   24 ar
    56   24   25 ar
    57   24   61 1
    58   25   26 ar
    59   25   62 1
    60   26   27 ar
    61   26   63 1
    62   27   28 ar
    63   27   64 1
    64   28   29 1
    65   29   30 1
    66   29   31 1
    67   29   32 1
@<TRIPOS>MOLECULE
ZINC04729924
   57    60     0     0     0
SMALL
USER_CHARGES
2-ethoxy-6-[2-(3-fluorophenyl)-6-(4-methoxyphenyl)-2,3,4,5-tetrahydropyrimidin-4-yl]-phenol
@<TRIPOS>ATOM
      1 C1          1.0619    1.5062   -4.7962 C.3       1 <0>        -0.1555
      2 C2          1.9171    1.8885   -3.5865 C.3       1 <0>         0.0498
      3 O1          1.2192    1.5546   -2.3851 O.3       1 <0>        -0.2981
      4 C3          1.8453    1.8315   -1.2100 C.ar      1 <0>         0.1301
      5 C4          3.1034    2.4122   -1.2136 C.ar      1 <0>        -0.1755
      6 C5          3.7382    2.6935   -0.0182 C.ar      1 <0>        -0.0611
      7 C6          3.1205    2.3972    1.1826 C.ar      1 <0>        -0.1589
      8 C7          1.8631    1.8226    1.1932 C.ar      1 <0>        -0.1270
      9 C8          1.2237    1.5328   -0.0014 C.ar      1 <0>         0.1059
     10 O2         -0.0110    0.9628    0.0073 O.3       1 <0>        -0.4790
     11 C9          1.1901    1.5067    2.5041 C.3       1 <0>         0.0976
     12 H1          0.6806    0.5457    2.4336 H         1 <0>         0.1538
     13 C10         0.1775    2.6049    2.8431 C.3       1 <0>        -0.1394
     14 C11        -0.2561    2.4623    4.2756 C.2       1 <0>         0.2818
     15 N1          0.3778    1.7498    5.1304 N.2       1 <0>        -0.5303
     16 C12         1.5814    0.9860    4.8265 C.3       1 <0>         0.2627
     17 H2          1.3210   -0.0671    4.7203 H         1 <0>         0.1628
     18 C13         2.5669    1.1423    5.9557 C.ar      1 <0>        -0.1073
     19 C14         2.1131    1.3482    7.2455 C.ar      1 <0>        -0.0710
     20 C15         3.0159    1.4921    8.2822 C.ar      1 <0>        -0.0775
     21 C16         4.3736    1.4294    8.0308 C.ar      1 <0>        -0.1261
     22 C17         4.8291    1.2229    6.7399 C.ar      1 <0>         0.1173
     23 C18         3.9236    1.0741    5.7028 C.ar      1 <0>        -0.1686
     24 F1          6.1559    1.1619    6.4928 F         1 <0>        -0.1262
     25 C19        -1.4685    3.1758    4.7169 C.ar      1 <0>        -0.1441
     26 C20        -2.1836    3.9672    3.8139 C.ar      1 <0>        -0.0352
     27 C21        -3.3187    4.6278    4.2290 C.ar      1 <0>        -0.2167
     28 C22        -3.7467    4.5172    5.5464 C.ar      1 <0>         0.1734
     29 C23        -3.0354    3.7360    6.4491 C.ar      1 <0>        -0.1630
     30 C24        -1.9026    3.0673    6.0409 C.ar      1 <0>        -0.0142
     31 O3         -4.8628    5.1746    5.9529 O.3       1 <0>        -0.3076
     32 C25        -5.5460    5.9599    4.9738 C.3       1 <0>         0.0211
     33 H3          0.1184    2.0509   -4.7608 H         1 <0>         0.0705
     34 H4          1.5943    1.7609   -5.7126 H         1 <0>         0.0863
     35 H5          0.8637    0.4345   -4.7770 H         1 <0>         0.0696
     36 H6          2.1153    2.9601   -3.6057 H         1 <0>         0.0689
     37 H7          2.8606    1.3438   -3.6219 H         1 <0>         0.0684
     38 H8          3.5881    2.6448   -2.1503 H         1 <0>         0.1460
     39 H9          4.7188    3.1461   -0.0224 H         1 <0>         0.1434
     40 H10         3.6195    2.6188    2.1143 H         1 <0>         0.1213
     41 H11         0.0021   -0.0041    0.0020 H         1 <0>         0.3962
     42 H12         0.6009    3.5011    2.7108 H         1 <0>         0.1106
     43 H13        -0.6903    2.5131    2.1900 H         1 <0>         0.1484
     44 H14         1.0525    1.3969    7.4430 H         1 <0>         0.1519
     45 H15         2.6603    1.6533    9.2892 H         1 <0>         0.1493
     46 H16         5.0788    1.5412    8.8411 H         1 <0>         0.1495
     47 H17         4.2777    0.9085    4.6960 H         1 <0>         0.1288
     48 H18        -1.8493    4.0570    2.7909 H         1 <0>         0.1332
     49 H19        -3.8744    5.2360    3.5307 H         1 <0>         0.1403
     50 H20        -3.3716    3.6527    7.4720 H         1 <0>         0.1425
     51 H21        -1.3503    2.4604    6.7430 H         1 <0>         0.1445
     52 H22        -5.8665    5.3186    4.1528 H         1 <0>         0.0623
     53 H23        -6.4176    6.4303    5.4290 H         1 <0>         0.1093
     54 H24        -4.8750    6.7298    4.5929 H         1 <0>         0.0618
     55 N2          2.2002    1.4599    3.5794 N.4       1 <0>        -0.5472
     56 H25         2.5851    2.4004    3.7262 H         1 <0>         0.4328
     57 H26         2.9557    0.8192    3.3092 H         1 <0>         0.4374
@<TRIPOS>BOND
     1    1    2 1
     2    1   33 1
     3    1   34 1
     4    1   35 1
     5    2    3 1
     6    2   36 1
     7    2   37 1
     8    3    4 1
     9    4    9 ar
    10    4    5 ar
    11    5    6 ar
    12    5   38 1
    13    6    7 ar
    14    6   39 1
    15    7    8 ar
    16    7   40 1
    17    8    9 ar
    18    8   11 1
    19    9   10 1
    20   10   41 1
    21   11   12 1
    22   11   13 1
    23   11   55 1
    24   13   14 1
    25   13   42 1
    26   13   43 1
    27   14   15 2
    28   14   25 1
    29   15   16 1
    30   16   17 1
    31   16   18 1
    32   16   55 1
    33   18   23 ar
    34   18   19 ar
    35   19   20 ar
    36   19   44 1
    37   20   21 ar
    38   20   45 1
    39   21   22 ar
    40   21   46 1
    41   22   23 ar
    42   22   24 1
    43   23   47 1
    44   25   30 ar
    45   25   26 ar
    46   26   27 ar
    47   26   48 1
    48   27   28 ar
    49   27   49 1
    50   28   29 ar
    51   28   31 1
    52   29   30 ar
    53   29   50 1
    54   30   51 1
    55   31   32 1
    56   32   52 1
    57   32   53 1
    58   32   54 1
    59   55   56 1
    60   55   57 1
@<TRIPOS>MOLECULE
ZINC12213182
   56    59     0     0     0
SMALL
USER_CHARGES
(5S)-5-[1-[(3-chlorophenyl)methyl]-4-piperidyl]-5-phenethyl-imidazolidine-2,4-dione
@<TRIPOS>ATOM
      1 C1          2.3960    0.0285   -0.0217 C.ar      1 <0>        -0.1166
      2 C2          1.2084   -0.6789   -0.0136 C.ar      1 <0>        -0.1152
      3 C3          0.0021   -0.0041    0.0020 C.ar      1 <0>        -0.1161
      4 C4         -0.0167    1.3781    0.0096 C.ar      1 <0>        -0.0917
      5 C5          1.1709    2.0855    0.0021 C.ar      1 <0>        -0.1151
      6 C6          2.3773    1.4107   -0.0141 C.ar      1 <0>        -0.1156
      7 C7         -1.3319    2.1138    0.0199 C.3       1 <0>        -0.0829
      8 C8         -1.7701    2.3549    1.4658 C.3       1 <0>        -0.1134
      9 C9         -3.1054    3.1019    1.4762 C.3       1 <0>         0.1291
     10 C10        -4.1979    2.2497    0.8614 C.2       1 <0>         0.5310
     11 O1         -4.5970    1.1748    1.2550 O.2       1 <0>        -0.4583
     12 N1         -4.6339    2.9360   -0.2134 N.am      1 <0>        -0.6789
     13 C11        -3.9755    4.0913   -0.3616 C.2       1 <0>         0.7016
     14 O2         -4.1922    4.8822   -1.2586 O.2       1 <0>        -0.5206
     15 N2         -3.0471    4.2799    0.5936 N.am      1 <0>        -0.7182
     16 C12        -3.4802    3.5113    2.9019 C.3       1 <0>        -0.0915
     17 C13        -3.4851    2.2747    3.8049 C.3       1 <0>        -0.1544
     18 C14        -3.9212    2.6803    5.2147 C.3       1 <0>        -0.0043
     19 C15        -5.2699    4.4934    4.3394 C.3       1 <0>         0.0041
     20 C16        -4.8756    4.1417    2.9031 C.3       1 <0>        -0.1545
     21 C17        -5.7687    3.5524    6.5134 C.3       1 <0>         0.0500
     22 C18        -5.9776    2.2522    7.2461 C.ar      1 <0>        -0.1504
     23 C19        -4.9499    1.7070    7.9932 C.ar      1 <0>        -0.0935
     24 C20        -5.1407    0.5145    8.6654 C.ar      1 <0>        -0.0982
     25 C21        -6.3596   -0.1336    8.5915 C.ar      1 <0>        -0.0765
     26 C22        -7.3883    0.4117    7.8446 C.ar      1 <0>        -0.0339
     27 C23        -7.1982    1.6080    7.1757 C.ar      1 <0>        -0.0879
     28 Cl1        -8.9194   -0.4013    7.7518 Cl        1 <0>        -0.0399
     29 H1          3.3385   -0.4987   -0.0343 H         1 <0>         0.1250
     30 H2          1.2231   -1.7587   -0.0199 H         1 <0>         0.1247
     31 H3         -0.9258   -0.5567    0.0079 H         1 <0>         0.1199
     32 H4          1.1563    3.1654    0.0077 H         1 <0>         0.1209
     33 H5          3.3051    1.9634   -0.0207 H         1 <0>         0.1249
     34 H6         -1.2169    3.0707   -0.4893 H         1 <0>         0.0810
     35 H7         -2.0859    1.5173   -0.4937 H         1 <0>         0.0683
     36 H8         -1.8851    1.3981    1.9750 H         1 <0>         0.0955
     37 H9         -1.0161    2.9515    1.9793 H         1 <0>         0.0948
     38 H10        -5.3383    2.6304   -0.8061 H         1 <0>         0.4386
     39 H11        -2.4551    5.0429    0.6838 H         1 <0>         0.4452
     40 H12        -2.7542    4.2329    3.2764 H         1 <0>         0.1150
     41 H13        -4.1821    1.5368    3.4075 H         1 <0>         0.1062
     42 H14        -2.4832    1.8470    3.8417 H         1 <0>         0.1226
     43 H15        -3.2156    3.4071    5.6171 H         1 <0>         0.1341
     44 H16        -3.9407    1.7994    5.8563 H         1 <0>         0.1333
     45 H17        -4.5579    5.2117    4.7459 H         1 <0>         0.1365
     46 H18        -6.2689    4.9294    4.3454 H         1 <0>         0.1335
     47 H19        -4.8664    5.0470    2.2962 H         1 <0>         0.1187
     48 H20        -5.5950    3.4340    2.4912 H         1 <0>         0.0863
     49 H21        -5.0462    4.1628    7.0552 H         1 <0>         0.1420
     50 H22        -6.7162    4.0868    6.4441 H         1 <0>         0.1382
     51 H23        -3.9975    2.2129    8.0512 H         1 <0>         0.1388
     52 H24        -4.3374    0.0887    9.2483 H         1 <0>         0.1469
     53 H25        -6.5087   -1.0652    9.1172 H         1 <0>         0.1471
     54 H26        -8.0022    2.0361    6.5954 H         1 <0>         0.1419
     55 N3         -5.2809    3.2574    5.1503 N.4       1 <0>        -0.3960
     56 H27        -5.9112    2.5764    4.7108 H         1 <0>         0.4279
@<TRIPOS>BOND
     1    1    6 ar
     2    1    2 ar
     3    1   29 1
     4    2    3 ar
     5    2   30 1
     6    3    4 ar
     7    3   31 1
     8    4    5 ar
     9    4    7 1
    10    5    6 ar
    11    5   32 1
    12    6   33 1
    13    7    8 1
    14    7   34 1
    15    7   35 1
    16    8    9 1
    17    8   36 1
    18    8   37 1
    19    9   15 1
    20    9   10 1
    21    9   16 1
    22   10   11 2
    23   10   12 am
    24   12   13 am
    25   12   38 1
    26   13   14 2
    27   13   15 am
    28   15   39 1
    29   16   20 1
    30   16   17 1
    31   16   40 1
    32   17   18 1
    33   17   41 1
    34   17   42 1
    35   18   43 1
    36   18   44 1
    37   18   55 1
    38   19   20 1
    39   19   45 1
    40   19   46 1
    41   19   55 1
    42   20   47 1
    43   20   48 1
    44   21   22 1
    45   21   49 1
    46   21   50 1
    47   21   55 1
    48   22   27 ar
    49   22   23 ar
    50   23   24 ar
    51   23   51 1
    52   24   25 ar
    53   24   52 1
    54   25   26 ar
    55   25   53 1
    56   26   27 ar
    57   26   28 1
    58   27   54 1
    59   55   56 1
@<TRIPOS>MOLECULE
ZINC36206454
   61    63     0     0     0
SMALL
USER_CHARGES

@<TRIPOS>ATOM
      1 C1         -0.4715    1.0751   -2.1986 C.3       1 <0>        -0.1204
      2 C2         -0.4788   -0.4188   -2.0007 C.ar      1 <0>        -0.0661
      3 C3         -0.6867   -1.2562   -3.0824 C.ar      1 <0>        -0.1267
      4 C4         -0.6945   -2.6247   -2.9073 C.ar      1 <0>        -0.0912
      5 C5         -0.4924   -3.1635   -1.6372 C.ar      1 <0>        -0.0593
      6 C6         -0.2835   -2.3149   -0.5512 C.ar      1 <0>        -0.0377
      7 C7         -0.2722   -0.9477   -0.7394 C.ar      1 <0>        -0.1210
      8 C8         -0.0643   -2.8894    0.8247 C.3       1 <0>        -0.1102
      9 C9         -0.5001   -4.6330   -1.4425 C.2       1 <0>        -0.0152
     10 C10         0.4567   -5.4091   -2.0066 C.2       1 <0>        -0.1584
     11 S1          0.0125   -7.0551   -1.4863 S.3       1 <0>         0.1910
     12 C11        -1.4327   -6.6669   -0.5331 C.2       1 <0>         0.0658
     13 C12        -1.5338   -5.2699   -0.6354 C.2       1 <0>        -0.1989
     14 C13        -2.6349   -4.6754    0.0598 C.2       1 <0>         0.5518
     15 O1         -2.8094   -3.4694    0.0263 O.2       1 <0>        -0.4721
     16 N1         -3.4749   -5.4683    0.7506 N.am      1 <0>        -0.6248
     17 H1         -4.2227   -5.0710    1.2236 H         1 <0>         0.4258
     18 C14        -3.2963   -6.8134    0.7981 C.2       1 <0>         0.3600
     19 N2         -2.3072   -7.3860    0.1658 N.2       1 <0>        -0.4866
     20 C15        -4.2628   -7.6615    1.5840 C.3       1 <0>         0.0421
     21 N3         -3.7771   -9.0473    1.6247 N.4       1 <0>        -0.3679
     22 C16        -4.9074   -9.9556    1.8604 C.3       1 <0>        -0.0597
     23 C17        -4.4360  -11.4041    1.7174 C.3       1 <0>         0.0927
     24 H2         -3.9304  -11.5289    0.7598 H         1 <0>         0.1240
     25 C18        -5.6430  -12.3420    1.7830 C.3       1 <0>        -0.1195
     26 C19        -6.6118  -12.0066    0.6473 C.3       1 <0>        -0.1617
     27 C20        -5.1716  -13.7906    1.6401 C.3       1 <0>        -0.1504
     28 O2         -3.5311  -11.7174    2.7781 O.3       1 <0>        -0.5463
     29 C21        -2.7984   -9.1915    2.7107 C.3       1 <0>         0.0081
     30 C22        -1.6637   -8.1846    2.5117 C.3       1 <0>        -0.1867
     31 C23        -3.4838   -8.9288    4.0531 C.3       1 <0>        -0.1819
     32 H3          0.5421    1.4068   -2.4240 H         1 <0>         0.0748
     33 H4         -1.1314    1.3353   -3.0261 H         1 <0>         0.0692
     34 H5         -0.8197    1.5639   -1.2887 H         1 <0>         0.0683
     35 H6         -0.8434   -0.8377   -4.0656 H         1 <0>         0.1259
     36 H7         -0.8571   -3.2774   -3.7523 H         1 <0>         0.1220
     37 H8         -0.1057   -0.2893    0.1004 H         1 <0>         0.1237
     38 H9          1.0012   -3.0558    0.9834 H         1 <0>         0.0698
     39 H10        -0.4386   -2.1915    1.5737 H         1 <0>         0.0675
     40 H11        -0.5969   -3.8364    0.9121 H         1 <0>         0.0538
     41 H12         1.2885   -5.1038   -2.6240 H         1 <0>         0.2069
     42 H13        -4.3427   -7.2746    2.5999 H         1 <0>         0.1643
     43 H14        -5.2422   -7.6336    1.1065 H         1 <0>         0.1644
     44 H15        -5.2967   -9.7977    2.8661 H         1 <0>         0.1413
     45 H16        -5.6925   -9.7554    1.1312 H         1 <0>         0.1448
     46 H17        -6.1485  -12.2173    2.7406 H         1 <0>         0.0853
     47 H18        -7.4717  -12.6748    0.6940 H         1 <0>         0.0744
     48 H19        -6.9476  -10.9746    0.7491 H         1 <0>         0.0560
     49 H20        -6.1063  -12.1314   -0.3103 H         1 <0>         0.0657
     50 H21        -4.4814  -14.0296    2.4491 H         1 <0>         0.0675
     51 H22        -6.0315  -14.4588    1.6868 H         1 <0>         0.0672
     52 H23        -4.6661  -13.9154    0.6825 H         1 <0>         0.0614
     53 H24        -3.9351  -11.7040    3.6566 H         1 <0>         0.3886
     54 H25        -2.3923  -10.2030    2.7019 H         1 <0>         0.1747
     55 H26        -1.2338   -8.3133    1.5184 H         1 <0>         0.1032
     56 H27        -2.0552   -7.1720    2.6098 H         1 <0>         0.0613
     57 H28        -0.8939   -8.3511    3.2652 H         1 <0>         0.0990
     58 H29        -4.2625   -9.6740    4.2156 H         1 <0>         0.0796
     59 H30        -2.7482   -8.9911    4.8551 H         1 <0>         0.1089
     60 H31        -3.9291   -7.9339    4.0452 H         1 <0>         0.0739
     61 H32        -3.3394   -9.2763    0.7449 H         1 <0>         0.4379
@<TRIPOS>BOND
     1    1    2 1
     2    1   32 1
     3    1   33 1
     4    1   34 1
     5    2    7 ar
     6    2    3 ar
     7    3    4 ar
     8    3   35 1
     9    4    5 ar
    10    4   36 1
    11    5    6 ar
    12    5    9 1
    13    6    7 ar
    14    6    8 1
    15    7   37 1
    16    8   38 1
    17    8   39 1
    18    8   40 1
    19    9   13 1
    20    9   10 2
    21   10   11 1
    22   10   41 1
    23   11   12 1
    24   12   19 1
    25   12   13 2
    26   13   14 1
    27   14   15 2
    28   14   16 am
    29   16   17 1
    30   16   18 1
    31   18   19 2
    32   18   20 1
    33   20   21 1
    34   20   42 1
    35   20   43 1
    36   21   22 1
    37   21   29 1
    38   21   61 1
    39   22   23 1
    40   22   44 1
    41   22   45 1
    42   23   24 1
    43   23   25 1
    44   23   28 1
    45   25   26 1
    46   25   27 1
    47   25   46 1
    48   26   47 1
    49   26   48 1
    50   26   49 1
    51   27   50 1
    52   27   51 1
    53   27   52 1
    54   28   53 1
    55   29   30 1
    56   29   31 1
    57   29   54 1
    58   30   55 1
    59   30   56 1
    60   30   57 1
    61   31   58 1
    62   31   59 1
    63   31   60 1
@<TRIPOS>MOLECULE
ZINC39637793
   59    62     0     0     0
SMALL
USER_CHARGES

@<TRIPOS>ATOM
      1 C1         -0.0134    1.5024    0.0089 C.3       1 <0>        -0.1087
      2 C2         -0.0085   -0.0045    0.0002 C.2       1 <0>        -0.0121
      3 C3         -0.0177   -0.7287   -1.1677 C.2       1 <0>        -0.1873
      4 C4         -0.0121   -2.0831   -1.1035 C.2       1 <0>        -0.2122
      5 S1          0.0059   -2.4173    0.5428 S.3       1 <0>         0.1994
      6 C5          0.0116   -0.7486    1.1701 C.2       1 <0>        -0.2849
      7 C6          0.0305   -0.2841    2.5603 C.2       1 <0>         0.6385
      8 O1          0.1189    0.9051    2.8034 O.2       1 <0>        -0.5170
      9 N1         -0.0501   -1.1741    3.5692 N.am      1 <0>        -0.6236
     10 C7         -0.0408   -2.6532    3.4786 C.3       1 <0>         0.1080
     11 C8          0.8126   -3.1126    4.6821 C.3       1 <0>        -0.1123
     12 H1          1.8467   -3.2705    4.3758 H         1 <0>         0.1152
     13 C9          0.7236   -1.9552    5.6908 C.3       1 <0>        -0.0732
     14 C10        -0.1615   -0.8943    5.0209 C.3       1 <0>         0.1116
     15 C11         2.1114   -1.3817    5.9607 C.3       1 <0>        -0.1344
     16 C12         2.0042   -0.2707    7.0091 C.3       1 <0>        -0.0113
     17 N2          1.4291   -0.8155    8.2449 N.4       1 <0>        -0.5043
     18 C13         0.0592   -1.2808    7.9972 C.3       1 <0>        -0.0078
     19 C14         0.0839   -2.4343    6.9903 C.3       1 <0>        -0.1471
     20 C15         0.2440   -4.3751    5.2770 C.2       1 <0>         0.5198
     21 O2         -0.9327   -4.6344    5.1383 O.2       1 <0>        -0.5153
     22 N3          1.0430   -5.2160    5.9631 N.am      1 <0>        -0.7289
     23 C16         0.4902   -6.4433    6.5415 C.3       1 <0>         0.1197
     24 C17         1.5995   -7.2122    7.2620 C.3       1 <0>        -0.0888
     25 C18         1.0309   -8.4746    7.8569 C.ar      1 <0>        -0.0629
     26 C19         0.5159   -8.4630    9.1400 C.ar      1 <0>        -0.1261
     27 C20        -0.0060   -9.6201    9.6870 C.ar      1 <0>        -0.0858
     28 C21        -0.0131  -10.7906    8.9518 C.ar      1 <0>        -0.1504
     29 C22         0.5024  -10.8035    7.6670 C.ar      1 <0>         0.1062
     30 C23         1.0194   -9.6421    7.1179 C.ar      1 <0>        -0.1486
     31 F1          0.4964  -11.9470    6.9477 F         1 <0>        -0.1345
     32 H2          1.0129    1.8692   -0.0045 H         1 <0>         0.0794
     33 H3         -0.5418    1.8691   -0.8712 H         1 <0>         0.0708
     34 H4         -0.5150    1.8590    0.9085 H         1 <0>         0.0858
     35 H5         -0.0297   -0.2260   -2.1235 H         1 <0>         0.1421
     36 H6         -0.0182   -2.7863   -1.9232 H         1 <0>         0.1914
     37 H7         -1.0545   -3.0453    3.5599 H         1 <0>         0.1075
     38 H8          0.4178   -2.9738    2.5432 H         1 <0>         0.0912
     39 H9          0.2091    0.1059    5.2451 H         1 <0>         0.0929
     40 H10        -1.1950   -1.0009    5.3506 H         1 <0>         0.0869
     41 H11         2.7653   -2.1707    6.3321 H         1 <0>         0.0969
     42 H12         2.5218   -0.9725    5.0376 H         1 <0>         0.1192
     43 H13         2.9965    0.1300    7.2163 H         1 <0>         0.1404
     44 H14         1.3632    0.5254    6.6304 H         1 <0>         0.1350
     45 H15         1.9929   -1.5889    8.5643 H         1 <0>         0.4273
     46 H16        -0.3822   -1.6248    8.9326 H         1 <0>         0.1398
     47 H17        -0.5358   -0.4607    7.5952 H         1 <0>         0.1339
     48 H18        -0.9351   -2.7672    6.7932 H         1 <0>         0.1256
     49 H19         0.6649   -3.2613    7.3986 H         1 <0>         0.0985
     50 H20         1.9840   -5.0087    6.0741 H         1 <0>         0.4009
     51 H21        -0.2957   -6.1881    7.2523 H         1 <0>         0.0758
     52 H22         0.0746   -7.0639    5.7476 H         1 <0>         0.0774
     53 H23         2.3855   -7.4674    6.5512 H         1 <0>         0.0848
     54 H24         2.0151   -6.5916    8.0559 H         1 <0>         0.0818
     55 H25         0.5216   -7.5490    9.7155 H         1 <0>         0.1274
     56 H26        -0.4081   -9.6098   10.6893 H         1 <0>         0.1362
     57 H27        -0.4202  -11.6948    9.3797 H         1 <0>         0.1392
     58 H28         1.4177   -9.6499    6.1141 H         1 <0>         0.1363
     59 H29         1.4159   -0.0972    8.9534 H         1 <0>         0.4347
@<TRIPOS>BOND
     1    1    2 1
     2    1   32 1
     3    1   33 1
     4    1   34 1
     5    2    6 2
     6    2    3 1
     7    3    4 2
     8    3   35 1
     9    4    5 1
    10    4   36 1
    11    5    6 1
    12    6    7 1
    13    7    8 2
    14    7    9 am
    15    9   14 1
    16    9   10 1
    17   10   11 1
    18   10   37 1
    19   10   38 1
    20   11   12 1
    21   11   13 1
    22   11   20 1
    23   13   19 1
    24   13   14 1
    25   13   15 1
    26   14   39 1
    27   14   40 1
    28   15   16 1
    29   15   41 1
    30   15   42 1
    31   16   17 1
    32   16   43 1
    33   16   44 1
    34   17   18 1
    35   17   45 1
    36   17   59 1
    37   18   19 1
    38   18   46 1
    39   18   47 1
    40   19   48 1
    41   19   49 1
    42   20   21 2
    43   20   22 am
    44   22   23 1
    45   22   50 1
    46   23   24 1
    47   23   51 1
    48   23   52 1
    49   24   25 1
    50   24   53 1
    51   24   54 1
    52   25   30 ar
    53   25   26 ar
    54   26   27 ar
    55   26   55 1
    56   27   28 ar
    57   27   56 1
    58   28   29 ar
    59   28   57 1
    60   29   30 ar
    61   29   31 1
    62   30   58 1
@<TRIPOS>MOLECULE
ZINC43942529
   59    61     0     0     0
SMALL
USER_CHARGES

@<TRIPOS>ATOM
      1 C1         -1.2680    1.1817    0.1823 C.3       1 <0>        -0.1205
      2 C2         -0.5859   -0.1586    0.0848 C.ar      1 <0>        -0.0999
      3 C3         -0.5709   -0.8410   -1.1159 C.ar      1 <0>        -0.1027
      4 C4          0.0546   -2.0708   -1.2062 C.ar      1 <0>        -0.1189
      5 C5          0.6670   -2.6220   -0.0952 C.ar      1 <0>        -0.1084
      6 C6          0.6554   -1.9455    1.1083 C.ar      1 <0>        -0.1133
      7 C7          0.0334   -0.7064    1.2010 C.ar      1 <0>         0.1251
      8 N1          0.0251   -0.0162    2.4158 N.am      1 <0>        -0.6358
      9 C8         -0.0564   -0.6961    3.5767 C.2       1 <0>         0.5061
     10 O1         -0.0401   -1.9097    3.5716 O.2       1 <0>        -0.5004
     11 C9         -0.1667    0.0438    4.8693 C.2       1 <0>         0.5138
     12 O2         -0.1830    1.2573    4.8744 O.2       1 <0>        -0.5045
     13 N2         -0.2482   -0.6361    6.0302 N.am      1 <0>        -0.7057
     14 C10        -0.3565    0.0897    7.2981 C.3       1 <0>         0.1217
     15 C11        -0.4333   -0.9105    8.4534 C.3       1 <0>        -0.1138
     16 C12        -1.7308   -1.7170    8.3469 C.3       1 <0>        -0.1470
     17 C13        -1.8393   -2.6590    9.5480 C.3       1 <0>        -0.0066
     18 N3         -1.8487   -1.8758   10.7893 N.4       1 <0>        -0.3828
     19 C14        -0.5779   -1.1556   10.9335 C.3       1 <0>        -0.0089
     20 C15        -0.4208   -0.1558    9.7858 C.3       1 <0>        -0.1377
     21 C16        -2.0313   -2.7779   11.9343 C.3       1 <0>         0.0425
     22 C17        -2.1641   -1.9662   13.1971 C.ar      1 <0>        -0.1428
     23 C18        -1.0776   -1.8081   14.0348 C.ar      1 <0>        -0.0738
     24 C19        -1.1985   -1.0631   15.1935 C.ar      1 <0>        -0.1164
     25 C20        -2.4072   -0.4741   15.5181 C.ar      1 <0>        -0.0650
     26 C21        -3.4978   -0.6282   14.6857 C.ar      1 <0>        -0.1269
     27 C22        -3.3784   -1.3712   13.5171 C.ar      1 <0>        -0.0668
     28 S1         -4.7655   -1.5647   12.4479 S.3       1 <0>        -0.1388
     29 C23        -6.0859   -0.6300   13.2686 C.3       1 <0>        -0.1350
     30 H1         -0.5539    1.9708   -0.0529 H         1 <0>         0.0760
     31 H2         -2.0972    1.2196   -0.5241 H         1 <0>         0.0760
     32 H3         -1.6464    1.3240    1.1946 H         1 <0>         0.0633
     33 H4         -1.0487   -0.4137   -1.9851 H         1 <0>         0.1306
     34 H5          0.0649   -2.6023   -2.1463 H         1 <0>         0.1281
     35 H6          1.1544   -3.5829   -0.1692 H         1 <0>         0.1289
     36 H7          1.1331   -2.3768    1.9756 H         1 <0>         0.1384
     37 H8          0.0780    0.9524    2.4237 H         1 <0>         0.4234
     38 H9         -0.2352   -1.6060    6.0261 H         1 <0>         0.4138
     39 H10         0.5179    0.7277    7.4274 H         1 <0>         0.0861
     40 H11        -1.2566    0.7044    7.2892 H         1 <0>         0.0820
     41 H12         0.4215   -1.5853    8.4086 H         1 <0>         0.1015
     42 H13        -2.5825   -1.0369    8.3396 H         1 <0>         0.0941
     43 H14        -1.7221   -2.3005    7.4263 H         1 <0>         0.1146
     44 H15        -2.7619   -3.2349    9.4752 H         1 <0>         0.1340
     45 H16        -0.9873   -3.3387    9.5542 H         1 <0>         0.1324
     46 H17        -0.5692   -0.6216   11.8837 H         1 <0>         0.1321
     47 H18         0.2473   -1.8674   10.9102 H         1 <0>         0.1314
     48 H19         0.5242    0.3766    9.8937 H         1 <0>         0.1181
     49 H20        -1.2454    0.5567    9.8084 H         1 <0>         0.0928
     50 H21        -2.9329   -3.3726   11.7881 H         1 <0>         0.1391
     51 H22        -1.1690   -3.4395   12.0167 H         1 <0>         0.1406
     52 H23        -0.1325   -2.2671   13.7849 H         1 <0>         0.1385
     53 H24        -0.3471   -0.9411   15.8467 H         1 <0>         0.1403
     54 H25        -2.4981    0.1068   16.4241 H         1 <0>         0.1399
     55 H26        -4.4413   -0.1684   14.9400 H         1 <0>         0.1358
     56 H27        -6.2679   -1.0504   14.2577 H         1 <0>         0.0951
     57 H28        -5.7855    0.4132   13.3669 H         1 <0>         0.0930
     58 H29        -6.9976   -0.6910   12.6744 H         1 <0>         0.1206
     59 H30        -2.6087   -1.2127   10.7617 H         1 <0>         0.4227
@<TRIPOS>BOND
     1    1    2 1
     2    1   30 1
     3    1   31 1
     4    1   32 1
     5    2    7 ar
     6    2    3 ar
     7    3    4 ar
     8    3   33 1
     9    4    5 ar
    10    4   34 1
    11    5    6 ar
    12    5   35 1
    13    6    7 ar
    14    6   36 1
    15    7    8 1
    16    8    9 am
    17    8   37 1
    18    9   10 2
    19    9   11 1
    20   11   12 2
    21   11   13 am
    22   13   14 1
    23   13   38 1
    24   14   15 1
    25   14   39 1
    26   14   40 1
    27   15   20 1
    28   15   16 1
    29   15   41 1
    30   16   17 1
    31   16   42 1
    32   16   43 1
    33   17   18 1
    34   17   44 1
    35   17   45 1
    36   18   19 1
    37   18   21 1
    38   18   59 1
    39   19   20 1
    40   19   46 1
    41   19   47 1
    42   20   48 1
    43   20   49 1
    44   21   22 1
    45   21   50 1
    46   21   51 1
    47   22   27 ar
    48   22   23 ar
    49   23   24 ar
    50   23   52 1
    51   24   25 ar
    52   24   53 1
    53   25   26 ar
    54   25   54 1
    55   26   27 ar
    56   26   55 1
    57   27   28 1
    58   28   29 1
    59   29   56 1
    60   29   57 1
    61   29   58 1
@<TRIPOS>MOLECULE
ZINC19740551
   56    59     0     0     0
SMALL
USER_CHARGES
(3S,4S)-1-[[4-(3-hydroxyprop-1-ynyl)-2-thienyl]methyl]-4-[4-(2-pyridyl)piperazin-1-yl]pyrrolidin-3-ol
@<TRIPOS>ATOM
      1 C1          1.8746    1.9638   -8.4963 C.ar      1 <0>         0.0251
      2 C2          3.1734    1.4793   -8.4117 C.ar      1 <0>        -0.1423
      3 C3          3.6126    0.9255   -7.2262 C.ar      1 <0>         0.1454
      4 N1          2.8169    0.8567   -6.1756 N.ar      1 <0>        -0.5053
      5 C4          1.5709    1.3024   -6.2180 C.ar      1 <0>         0.3507
      6 C5          1.0623    1.8729   -7.3807 C.ar      1 <0>        -0.1463
      7 N2          0.7655    1.2047   -5.0893 N.pl3     1 <0>        -0.4744
      8 C6          1.4914    0.5750   -3.9774 C.3       1 <0>         0.0170
      9 C7          0.5486    0.4139   -2.7825 C.3       1 <0>         0.0509
     10 N3          0.0298    1.7317   -2.3900 N.3       1 <0>        -0.5409
     11 C8         -0.6960    2.3613   -3.5019 C.3       1 <0>         0.0524
     12 C9          0.2468    2.5224   -4.6968 C.3       1 <0>         0.0526
     13 C10        -0.8213    1.6284   -1.1971 C.3       1 <0>         0.0674
     14 H1         -1.6435    0.9790   -1.5321 H         1 <0>         0.1007
     15 C11        -0.0127    1.0858    0.0080 C.3       1 <0>         0.0035
     16 N4         -0.7656    1.5934    1.1835 N.4       1 <0>        -0.4011
     17 C12        -1.1967    2.9633    0.8232 C.3       1 <0>        -0.0322
     18 C13        -1.2647    3.0283   -0.7138 C.3       1 <0>         0.1105
     19 H2         -0.6905    3.8588   -1.1503 H         1 <0>         0.1092
     20 O1         -2.6013    3.2998   -1.1402 O.3       1 <0>        -0.5929
     21 C14         0.0786    1.6020    2.3857 C.3       1 <0>         0.0981
     22 C15        -0.6285    2.3439    3.4906 C.2       1 <0>        -0.2683
     23 C16        -1.4753    1.8632    4.4276 C.2       1 <0>        -0.0604
     24 C17        -2.0144    2.7408    5.3659 C.2       1 <0>        -0.0205
     25 C18        -1.6710    4.0641    5.2922 C.2       1 <0>        -0.1034
     26 S1         -0.5666    4.0821    3.8901 S.3       1 <0>         0.1072
     27 C19        -2.9110    2.2712    6.3790 C.1       1 <0>        -0.1518
     28 C20        -3.6459    1.8862    7.2095 C.1       1 <0>        -0.1055
     29 C21        -4.5675    1.4034    8.2509 C.3       1 <0>         0.1876
     30 O2         -4.7564   -0.0054    8.1040 O.3       1 <0>        -0.6013
     31 H3          1.5070    2.4013   -9.4127 H         1 <0>         0.1802
     32 H4          3.8330    1.5350   -9.2651 H         1 <0>         0.1866
     33 H5          4.6218    0.5475   -7.1561 H         1 <0>         0.2092
     34 H6          0.0471    2.2401   -7.4114 H         1 <0>         0.1823
     35 H7          1.8584   -0.4131   -4.2920 H         1 <0>         0.1071
     36 H8          2.3437    1.2084   -3.6905 H         1 <0>         0.0803
     37 H9         -0.2887   -0.2425   -3.0620 H         1 <0>         0.0687
     38 H10         1.0977   -0.0310   -1.9395 H         1 <0>         0.1031
     39 H11        -1.5483    1.7278   -3.7888 H         1 <0>         0.0674
     40 H12        -1.0631    3.3494   -3.1874 H         1 <0>         0.1107
     41 H13         1.0848    3.1781   -4.4181 H         1 <0>         0.0787
     42 H14        -0.3016    2.9668   -5.5405 H         1 <0>         0.1150
     43 H15         0.0119   -0.0132   -0.0320 H         1 <0>         0.1442
     44 H16         1.0144    1.4773   -0.0335 H         1 <0>         0.1502
     45 H17        -2.1844    3.1646    1.2636 H         1 <0>         0.1420
     46 H18        -0.4678    3.6907    1.2099 H         1 <0>         0.1335
     47 H19        -3.0774    4.2571   -0.8816 H         1 <0>         0.4395
     48 H20         0.2730    0.5673    2.7046 H         1 <0>         0.1534
     49 H21         1.0324    2.1016    2.1604 H         1 <0>         0.1402
     50 H22        -1.7280    0.8134    4.4508 H         1 <0>         0.1480
     51 H23        -1.9862    4.8843    5.9201 H         1 <0>         0.2046
     52 H24        -4.1426    1.6149    9.2432 H         1 <0>         0.0805
     53 H25        -5.5357    1.9157    8.1499 H         1 <0>         0.0796
     54 H26        -5.4172   -0.5469    8.7969 H         1 <0>         0.4317
     55 H27        -1.6246    0.9518    1.4293 H         1 <0>         0.4575
     56 H28         3.1844    0.4208   -5.2349 H         1 <0>         0.4743
@<TRIPOS>BOND
     1    1    6 ar
     2    1    2 ar
     3    1   31 1
     4    2    3 ar
     5    2   32 1
     6    3    4 ar
     7    3   33 1
     8    4    5 ar
     9    4   56 1
    10    5    6 ar
    11    5    7 1
    12    6   34 1
    13    7   12 1
    14    7    8 1
    15    8    9 1
    16    8   35 1
    17    8   36 1
    18    9   10 1
    19    9   37 1
    20    9   38 1
    21   10   11 1
    22   10   13 1
    23   11   12 1
    24   11   39 1
    25   11   40 1
    26   12   41 1
    27   12   42 1
    28   13   14 1
    29   13   18 1
    30   13   15 1
    31   15   16 1
    32   15   43 1
    33   15   44 1
    34   16   17 1
    35   16   21 1
    36   16   55 1
    37   17   18 1
    38   17   45 1
    39   17   46 1
    40   18   19 1
    41   18   20 1
    42   20   47 1
    43   21   22 1
    44   21   48 1
    45   21   49 1
    46   22   26 1
    47   22   23 2
    48   23   24 1
    49   23   50 1
    50   24   25 2
    51   24   27 1
    52   25   26 1
    53   25   51 1
    54   27   28 3
    55   28   29 1
    56   29   30 1
    57   29   52 1
    58   29   53 1
    59   30   54 1
@<TRIPOS>MOLECULE
ZINC39630949
   75    76     0     0     0
SMALL
USER_CHARGES

@<TRIPOS>ATOM
      1 C1         -0.5566    2.7044    0.5389 C.3       1 <0>        -0.1554
      2 C2         -0.6766    1.1794    0.5081 C.3       1 <0>        -0.1261
      3 C3          0.1837    0.5775    1.6209 C.3       1 <0>        -0.1208
      4 C4          0.0638   -0.9475    1.5900 C.3       1 <0>        -0.1035
      5 C5          0.9241   -1.5494    2.7029 C.3       1 <0>        -0.1042
      6 H1          0.6403   -1.1103    3.6593 H         1 <0>         0.0976
      7 C6          2.3991   -1.2537    2.4237 C.3       1 <0>        -0.1546
      8 C7          0.7112   -3.0405    2.7516 C.2       1 <0>         0.5442
      9 O1         -0.0534   -3.5696    1.9730 O.2       1 <0>        -0.5210
     10 N1          1.3705   -3.7859    3.6605 N.am      1 <0>        -0.6250
     11 C8          2.3315   -3.3236    4.6894 C.3       1 <0>         0.1100
     12 C9          2.0061   -4.1741    5.9377 C.3       1 <0>        -0.1146
     13 H2          1.3240   -3.6362    6.5962 H         1 <0>         0.1120
     14 C10         1.3299   -5.4398    5.3848 C.3       1 <0>        -0.0724
     15 C11         1.2930   -5.2529    3.8610 C.3       1 <0>         0.1047
     16 C12         2.1466   -6.6765    5.7469 C.3       1 <0>        -0.1436
     17 C13         1.4244   -7.9267    5.2368 C.3       1 <0>        -0.0094
     18 N2          0.0889   -8.0037    5.8411 N.4       1 <0>        -0.5039
     19 C14        -0.7212   -6.8570    5.4127 C.3       1 <0>        -0.0132
     20 C15        -0.0898   -5.5615    5.9304 C.3       1 <0>        -0.1323
     21 C16         3.2717   -4.5314    6.6737 C.2       1 <0>         0.5244
     22 O2          4.3133   -4.6538    6.0647 O.2       1 <0>        -0.5085
     23 N3          3.2460   -4.7148    8.0087 N.am      1 <0>        -0.7324
     24 C17         4.4764   -5.0621    8.7241 C.3       1 <0>         0.1302
     25 C18         4.1735   -5.2123   10.2163 C.3       1 <0>        -0.0980
     26 C19         3.6225   -3.8926   10.7602 C.3       1 <0>        -0.1712
     27 C20         3.1368   -6.3194   10.4174 C.3       1 <0>        -0.1744
     28 C21         5.4584   -5.5750   10.9635 C.3       1 <0>        -0.0033
     29 N4          5.1765   -5.6769   12.4016 N.4       1 <0>        -0.3866
     30 C22         4.7034   -7.0323   12.7130 C.3       1 <0>        -0.0713
     31 C23         6.4025   -5.3995   13.1618 C.3       1 <0>        -0.0504
     32 H3          0.4844    2.9901    0.3881 H         1 <0>         0.0545
     33 H4         -1.1696    3.1332   -0.2539 H         1 <0>         0.0574
     34 H5         -0.8993    3.0763    1.5045 H         1 <0>         0.0534
     35 H6         -1.7176    0.8937    0.6588 H         1 <0>         0.0620
     36 H7         -0.3340    0.8075   -0.4575 H         1 <0>         0.0633
     37 H8          1.2248    0.8632    1.4701 H         1 <0>         0.0663
     38 H9         -0.1589    0.9494    2.5865 H         1 <0>         0.0615
     39 H10        -0.9773   -1.2332    1.7408 H         1 <0>         0.0715
     40 H11         0.4064   -1.3194    0.6244 H         1 <0>         0.0722
     41 H12         2.5531   -0.1752    2.3884 H         1 <0>         0.0783
     42 H13         3.0120   -1.6825    3.2165 H         1 <0>         0.0594
     43 H14         2.6829   -1.6927    1.4672 H         1 <0>         0.0650
     44 H15         3.3552   -3.5053    4.3621 H         1 <0>         0.1003
     45 H16         2.1815   -2.2650    4.9012 H         1 <0>         0.0970
     46 H17         0.3609   -5.6440    3.4530 H         1 <0>         0.0905
     47 H18         2.1482   -5.7458    3.3986 H         1 <0>         0.0839
     48 H19         3.1312   -6.6107    5.2839 H         1 <0>         0.1258
     49 H20         2.2562   -6.7359    6.8297 H         1 <0>         0.0910
     50 H21         1.3296   -7.8742    4.1522 H         1 <0>         0.1361
     51 H22         1.9974   -8.8133    5.5084 H         1 <0>         0.1395
     52 H23        -0.3612   -8.8589    5.5513 H         1 <0>         0.4371
     53 H24        -0.7649   -6.8298    4.3239 H         1 <0>         0.1368
     54 H25        -1.7299   -6.9549    5.8140 H         1 <0>         0.1420
     55 H26        -0.0605   -5.5809    7.0198 H         1 <0>         0.0926
     56 H27        -0.6821   -4.7094    5.5968 H         1 <0>         0.1197
     57 H28         2.4129   -4.6168    8.4958 H         1 <0>         0.4018
     58 H29         4.8689   -6.0023    8.3366 H         1 <0>         0.0831
     59 H30         5.2150   -4.2734    8.5808 H         1 <0>         0.0861
     60 H31         2.7807   -3.5703   10.1474 H         1 <0>         0.0851
     61 H32         3.2902   -4.0340   11.7886 H         1 <0>         0.0628
     62 H33         4.4042   -3.1335   10.7321 H         1 <0>         0.0819
     63 H34         3.6030   -7.2894   10.2451 H         1 <0>         0.0785
     64 H35         2.7527   -6.2767   11.4366 H         1 <0>         0.0729
     65 H36         2.3159   -6.1806    9.7138 H         1 <0>         0.0771
     66 H37         5.8336   -6.5310   10.5982 H         1 <0>         0.1369
     67 H38         6.2079   -4.8019   10.7941 H         1 <0>         0.1384
     68 H39         5.4733   -7.7562   12.4460 H         1 <0>         0.1252
     69 H40         4.4891   -7.1064   13.7792 H         1 <0>         0.1267
     70 H41         3.7966   -7.2401   12.1449 H         1 <0>         0.1329
     71 H42         7.1940   -6.0730   12.8332 H         1 <0>         0.1256
     72 H43         6.7097   -4.3676   12.9919 H         1 <0>         0.1259
     73 H44         6.2135   -5.5521   14.2244 H         1 <0>         0.1280
     74 H45         4.4657   -5.0065   12.6533 H         1 <0>         0.4230
     75 H46         0.1752   -7.9960    6.8464 H         1 <0>         0.4242
@<TRIPOS>BOND
     1    1    2 1
     2    1   32 1
     3    1   33 1
     4    1   34 1
     5    2    3 1
     6    2   35 1
     7    2   36 1
     8    3    4 1
     9    3   37 1
    10    3   38 1
    11    4    5 1
    12    4   39 1
    13    4   40 1
    14    5    6 1
    15    5    7 1
    16    5    8 1
    17    7   41 1
    18    7   42 1
    19    7   43 1
    20    8    9 2
    21    8   10 am
    22   10   15 1
    23   10   11 1
    24   11   12 1
    25   11   44 1
    26   11   45 1
    27   12   13 1
    28   12   14 1
    29   12   21 1
    30   14   20 1
    31   14   15 1
    32   14   16 1
    33   15   46 1
    34   15   47 1
    35   16   17 1
    36   16   48 1
    37   16   49 1
    38   17   18 1
    39   17   50 1
    40   17   51 1
    41   18   19 1
    42   18   52 1
    43   18   75 1
    44   19   20 1
    45   19   53 1
    46   19   54 1
    47   20   55 1
    48   20   56 1
    49   21   22 2
    50   21   23 am
    51   23   24 1
    52   23   57 1
    53   24   25 1
    54   24   58 1
    55   24   59 1
    56   25   26 1
    57   25   27 1
    58   25   28 1
    59   26   60 1
    60   26   61 1
    61   26   62 1
    62   27   63 1
    63   27   64 1
    64   27   65 1
    65   28   29 1
    66   28   66 1
    67   28   67 1
    68   29   30 1
    69   29   31 1
    70   29   74 1
    71   30   68 1
    72   30   69 1
    73   30   70 1
    74   31   71 1
    75   31   72 1
    76   31   73 1
@<TRIPOS>MOLECULE
ZINC20365360
   53    54     0     0     0
SMALL
USER_CHARGES

@<TRIPOS>ATOM
      1 C1         -0.2636    1.4449    0.0366 C.3       1 <0>        -0.1926
      2 C2         -0.0339   -0.0673   -0.0010 C.3       1 <0>        -0.0212
      3 N1          0.8228   -0.4606    1.1256 N.4       1 <0>        -0.3811
      4 C3          0.1113   -0.2220    2.3885 C.3       1 <0>        -0.0178
      5 C4          1.0526   -0.4946    3.5635 C.3       1 <0>        -0.1926
      6 C5          1.1556   -1.8870    1.0130 C.3       1 <0>        -0.0439
      7 C6          2.0039   -2.1155   -0.2396 C.3       1 <0>        -0.0397
      8 N2          2.3367   -3.5418   -0.3522 N.4       1 <0>        -0.5024
      9 C7          3.1512   -3.7612   -1.5549 C.3       1 <0>        -0.0430
     10 C8          3.4979   -5.2468   -1.6721 C.3       1 <0>         0.2237
     11 C9          4.4336   -5.4540   -2.8351 C.ar      1 <0>        -0.1410
     12 C10         5.3141   -4.4528   -3.2003 C.ar      1 <0>        -0.1024
     13 C11         6.1725   -4.6423   -4.2669 C.ar      1 <0>        -0.1039
     14 C12         6.1505   -5.8343   -4.9690 C.ar      1 <0>        -0.0146
     15 C13         5.2690   -6.8359   -4.6030 C.ar      1 <0>        -0.1006
     16 C14         4.4150   -6.6474   -3.5327 C.ar      1 <0>        -0.0729
     17 Cl1         7.2280   -6.0728   -6.3090 Cl        1 <0>        -0.0371
     18 C15         4.1649   -5.7087   -0.4022 C.ar      1 <0>        -0.1188
     19 C16         4.9137   -4.8207    0.3474 C.ar      1 <0>        -0.1424
     20 C17         5.5257   -5.2438    1.5122 C.ar      1 <0>        -0.0986
     21 C18         5.3888   -6.5563    1.9280 C.ar      1 <0>        -0.0191
     22 C19         4.6393   -7.4445    1.1773 C.ar      1 <0>        -0.0936
     23 C20         4.0231   -7.0188    0.0157 C.ar      1 <0>        -0.0597
     24 Cl2         6.1577   -7.0886    3.3906 Cl        1 <0>        -0.0322
     25 O1          2.3018   -5.9998   -1.8830 O.3       1 <0>        -0.5384
     26 H1          0.6976    1.9575    0.0745 H         1 <0>         0.0844
     27 H2         -0.8045    1.7526   -0.8583 H         1 <0>         0.1145
     28 H3         -0.8475    1.7018    0.9204 H         1 <0>         0.0882
     29 H4         -0.9917   -0.5823    0.0738 H         1 <0>         0.1392
     30 H5          0.4518   -0.3379   -0.9386 H         1 <0>         0.1280
     31 H6         -0.2256    0.8139    2.4255 H         1 <0>         0.1458
     32 H7         -0.7502   -0.8867    2.4513 H         1 <0>         0.1375
     33 H8          1.3017   -1.5554    3.5909 H         1 <0>         0.0781
     34 H9          1.9645    0.0898    3.4417 H         1 <0>         0.0841
     35 H10         0.5619   -0.2124    4.4950 H         1 <0>         0.1167
     36 H11         1.7165   -2.1998    1.8937 H         1 <0>         0.1552
     37 H12         0.2373   -2.4698    0.9412 H         1 <0>         0.1552
     38 H13         1.4430   -1.8026   -1.1203 H         1 <0>         0.1562
     39 H14         2.9223   -1.5327   -0.1678 H         1 <0>         0.1556
     40 H15         2.8560   -3.8314    0.4631 H         1 <0>         0.4344
     41 H16         2.5903   -3.4484   -2.4355 H         1 <0>         0.1550
     42 H17         4.0695   -3.1784   -1.4830 H         1 <0>         0.1530
     43 H18         5.3310   -3.5223   -2.6524 H         1 <0>         0.1262
     44 H19         6.8602   -3.8600   -4.5523 H         1 <0>         0.1439
     45 H20         5.2511   -7.7664   -5.1509 H         1 <0>         0.1468
     46 H21         3.7302   -7.4310   -3.2439 H         1 <0>         0.1443
     47 H22         5.0207   -3.7963    0.0227 H         1 <0>         0.1274
     48 H23         6.1109   -4.5501    2.0976 H         1 <0>         0.1466
     49 H24         4.5324   -8.4693    1.5012 H         1 <0>         0.1498
     50 H25         3.4341   -7.7109   -0.5679 H         1 <0>         0.1497
     51 H26         1.8193   -5.7552   -2.6846 H         1 <0>         0.4002
     52 H27         1.6714    0.0850    1.1094 H         1 <0>         0.4292
     53 H28         1.4867   -4.0813   -0.4187 H         1 <0>         0.4408
@<TRIPOS>BOND
     1    1    2 1
     2    1   26 1
     3    1   27 1
     4    1   28 1
     5    2    3 1
     6    2   29 1
     7    2   30 1
     8    3    4 1
     9    3    6 1
    10    3   52 1
    11    4    5 1
    12    4   31 1
    13    4   32 1
    14    5   33 1
    15    5   34 1
    16    5   35 1
    17    6    7 1
    18    6   36 1
    19    6   37 1
    20    7    8 1
    21    7   38 1
    22    7   39 1
    23    8    9 1
    24    8   40 1
    25    8   53 1
    26    9   10 1
    27    9   41 1
    28    9   42 1
    29   10   11 1
    30   10   18 1
    31   10   25 1
    32   11   16 ar
    33   11   12 ar
    34   12   13 ar
    35   12   43 1
    36   13   14 ar
    37   13   44 1
    38   14   15 ar
    39   14   17 1
    40   15   16 ar
    41   15   45 1
    42   16   46 1
    43   18   23 ar
    44   18   19 ar
    45   19   20 ar
    46   19   47 1
    47   20   21 ar
    48   20   48 1
    49   21   22 ar
    50   21   24 1
    51   22   23 ar
    52   22   49 1
    53   23   50 1
    54   25   51 1
@<TRIPOS>MOLECULE
ZINC62977773
   49    51     0     0     0
SMALL
USER_CHARGES

@<TRIPOS>ATOM
      1 C1         -0.0187    1.5258    0.0104 C.3       1 <0>        -0.1860
      2 C2          0.0021   -0.0041    0.0020 C.3       1 <0>         0.0336
      3 H1          0.5123   -0.3556   -0.8948 H         1 <0>         0.1525
      4 C3          0.7421   -0.5109    1.2415 C.3       1 <0>         0.1532
      5 H2          0.8346   -1.5958    1.1912 H         1 <0>         0.0947
      6 C4         -0.0298   -0.1295    2.4784 C.2       1 <0>        -0.2439
      7 C5         -0.8602   -0.8885    3.2339 C.2       1 <0>        -0.1169
      8 C6         -1.4679   -0.3215    4.3387 C.2       1 <0>        -0.1352
      9 C7         -1.2145    0.9780    4.6334 C.2       1 <0>        -0.1515
     10 S1         -0.0813    1.4373    3.3326 S.3       1 <0>         0.1778
     11 Br1        -1.8825    2.0284    6.0569 Br        1 <0>         0.0774
     12 N1          2.0803    0.0928    1.2939 N.3       1 <0>        -0.4857
     13 C8          2.9096   -0.3505    0.1438 C.3       1 <0>         0.0161
     14 C9          4.3652   -0.1078    0.5974 C.3       1 <0>        -0.1416
     15 C10         4.3128   -0.1254    2.1390 C.3       1 <0>         0.0189
     16 H3          4.6380    0.8346    2.5398 H         1 <0>         0.1553
     17 C11         2.8301   -0.3773    2.4872 C.3       1 <0>         0.0184
     18 N2          5.1539   -1.2085    2.6657 N.4       1 <0>        -0.3794
     19 C12         5.0552   -1.2347    4.1300 C.3       1 <0>        -0.0096
     20 C13         5.8650   -2.4114    4.6786 C.3       1 <0>        -0.1454
     21 C14         7.3313   -2.2508    4.2670 C.3       1 <0>        -0.1413
     22 C15         7.4149   -2.1500    2.7413 C.3       1 <0>        -0.1456
     23 C16         6.5477   -0.9830    2.2644 C.3       1 <0>        -0.0104
     24 N3         -1.3761   -0.5125    0.0124 N.4       1 <0>        -0.6359
     25 H4          1.0039    1.9031    0.0027 H         1 <0>         0.1190
     26 H5         -0.5459    1.8868   -0.8726 H         1 <0>         0.0896
     27 H6         -0.5289    1.8773    0.9072 H         1 <0>         0.0851
     28 H7         -1.0448   -1.9211    2.9766 H         1 <0>         0.1456
     29 H8         -2.1342   -0.9042    4.9575 H         1 <0>         0.1548
     30 H9          2.7457   -1.4091   -0.0575 H         1 <0>         0.0674
     31 H10         2.6827    0.2451   -0.7404 H         1 <0>         0.1129
     32 H11         5.0135   -0.9039    0.2315 H         1 <0>         0.0997
     33 H12         4.7161    0.8609    0.2416 H         1 <0>         0.1197
     34 H13         2.5432    0.1981    3.3673 H         1 <0>         0.1202
     35 H14         2.6537   -1.4401    2.6526 H         1 <0>         0.0730
     36 H15         5.4479   -0.3028    4.5369 H         1 <0>         0.1331
     37 H16         4.0108   -1.3457    4.4214 H         1 <0>         0.1253
     38 H17         5.7920   -2.4280    5.7661 H         1 <0>         0.1153
     39 H18         5.4730   -3.3438    4.2726 H         1 <0>         0.0864
     40 H19         7.7386   -1.3444    4.7151 H         1 <0>         0.0847
     41 H20         7.9021   -3.1150    4.6070 H         1 <0>         0.0978
     42 H21         8.4497   -1.9798    2.4439 H         1 <0>         0.1165
     43 H22         7.0550   -3.0771    2.2950 H         1 <0>         0.0870
     44 H23         6.6050   -0.9083    1.1785 H         1 <0>         0.1315
     45 H24         6.9085   -0.0565    2.7110 H         1 <0>         0.1328
     46 H25        -1.8641   -0.1783   -0.8050 H         1 <0>         0.4459
     47 H26        -1.3624   -1.5214    0.0069 H         1 <0>         0.4357
     48 H27        -1.8484   -0.1871    0.8426 H         1 <0>         0.4341
     49 H28         4.8363   -2.0909    2.2934 H         1 <0>         0.4174
@<TRIPOS>BOND
     1    1    2 1
     2    1   25 1
     3    1   26 1
     4    1   27 1
     5    2    3 1
     6    2    4 1
     7    2   24 1
     8    4    5 1
     9    4    6 1
    10    4   12 1
    11    6   10 1
    12    6    7 2
    13    7    8 1
    14    7   28 1
    15    8    9 2
    16    8   29 1
    17    9   10 1
    18    9   11 1
    19   12   17 1
    20   12   13 1
    21   13   14 1
    22   13   30 1
    23   13   31 1
    24   14   15 1
    25   14   32 1
    26   14   33 1
    27   15   16 1
    28   15   17 1
    29   15   18 1
    30   17   34 1
    31   17   35 1
    32   18   23 1
    33   18   19 1
    34   18   49 1
    35   19   20 1
    36   19   36 1
    37   19   37 1
    38   20   21 1
    39   20   38 1
    40   20   39 1
    41   21   22 1
    42   21   40 1
    43   21   41 1
    44   22   23 1
    45   22   42 1
    46   22   43 1
    47   23   44 1
    48   23   45 1
    49   24   46 1
    50   24   47 1
    51   24   48 1
@<TRIPOS>MOLECULE
ZINC65396717
   57    60     0     0     0
SMALL
USER_CHARGES

@<TRIPOS>ATOM
      1 C1          0.6636    1.2177   -1.6281 C.3       1 <0>        -0.0484
      2 N1          0.5447   -0.2250   -1.3780 N.4       1 <0>        -0.3845
      3 C2          1.3837   -0.9567   -2.3346 C.3       1 <0>        -0.0058
      4 C3          1.2012   -2.4623   -2.1314 C.3       1 <0>        -0.1319
      5 C4          1.6112   -2.8325   -0.7031 C.3       1 <0>         0.1322
      6 C5          0.7811   -2.0086    0.2855 C.3       1 <0>        -0.1841
      7 C6          0.9791   -0.5198   -0.0073 C.3       1 <0>        -0.0040
      8 C7          1.3565   -4.3226   -0.4676 C.3       1 <0>        -0.1704
      9 C8          1.6484   -4.6651    0.9947 C.3       1 <0>         0.0869
     10 N2          1.5265   -6.1117    1.1912 N.pl3     1 <0>        -0.4087
     11 C9          0.4541   -6.7664    1.7042 C.cat     1 <0>         0.2865
     12 N3          0.6995   -8.0463    1.7308 N.pl3     1 <0>        -0.4635
     13 C10         1.9317   -8.2797    1.2405 C.2       1 <0>         0.1051
     14 C11         2.4753   -7.0592    0.8844 C.2       1 <0>         0.1183
     15 C12         3.8084   -6.8204    0.2957 C.ar      1 <0>        -0.0822
     16 C13         4.1911   -7.4928   -0.8671 C.ar      1 <0>        -0.0515
     17 C14         5.4363   -7.2666   -1.4135 C.ar      1 <0>        -0.1395
     18 C15         6.3098   -6.3720   -0.8092 C.ar      1 <0>         0.1540
     19 C16         5.9334   -5.7014    0.3470 C.ar      1 <0>        -0.1405
     20 C17         4.6879   -5.9172    0.8970 C.ar      1 <0>        -0.0775
     21 O1          7.5366   -6.1526   -1.3507 O.3       1 <0>        -0.4917
     22 C18         2.5835   -9.6027    1.1027 C.ar      1 <0>        -0.0799
     23 C19         3.8959   -9.7854    1.5383 C.ar      1 <0>        -0.0712
     24 C20         4.4975  -11.0202    1.4077 C.ar      1 <0>        -0.1109
     25 C21         3.8017  -12.0759    0.8460 C.ar      1 <0>        -0.0782
     26 C22         2.4998  -11.9009    0.4120 C.ar      1 <0>        -0.1114
     27 C23         1.8855  -10.6722    0.5421 C.ar      1 <0>        -0.0929
     28 O2          2.9989   -2.5478   -0.5153 O.3       1 <0>        -0.5429
     29 H1          1.7020    1.5240   -1.5017 H         1 <0>         0.1245
     30 H2          0.3412    1.4378   -2.6458 H         1 <0>         0.1278
     31 H3          0.0358    1.7618   -0.9225 H         1 <0>         0.1268
     32 H4          1.0929   -0.6898   -3.3506 H         1 <0>         0.1368
     33 H5          2.4294   -0.6932   -2.1759 H         1 <0>         0.1391
     34 H6          0.1558   -2.7270   -2.2902 H         1 <0>         0.1047
     35 H7          1.8263   -3.0038   -2.8414 H         1 <0>         0.1231
     36 H8         -0.2731   -2.2638    0.1769 H         1 <0>         0.1043
     37 H9          1.1058   -2.2258    1.3031 H         1 <0>         0.1141
     38 H10         2.0334   -0.2656    0.1019 H         1 <0>         0.1365
     39 H11         0.3896    0.0697    0.6949 H         1 <0>         0.1357
     40 H12         0.3156   -4.5535   -0.6940 H         1 <0>         0.0985
     41 H13         2.0080   -4.9094   -1.1153 H         1 <0>         0.1037
     42 H14         2.6604   -4.3482    1.2470 H         1 <0>         0.1182
     43 H15         0.9353   -4.1497    1.6379 H         1 <0>         0.1256
     44 H16        -0.4604   -6.2994    2.0389 H         1 <0>         0.2633
     45 H17         3.5127   -8.1892   -1.3373 H         1 <0>         0.1346
     46 H18         5.7330   -7.7860   -2.3126 H         1 <0>         0.1452
     47 H19         6.6158   -5.0065    0.8138 H         1 <0>         0.1438
     48 H20         4.3944   -5.3921    1.7939 H         1 <0>         0.1277
     49 H21         7.5586   -5.4333   -1.9966 H         1 <0>         0.4048
     50 H22         4.4401   -8.9620    1.9767 H         1 <0>         0.1290
     51 H23         5.5137  -11.1629    1.7444 H         1 <0>         0.1394
     52 H24         4.2770  -13.0405    0.7456 H         1 <0>         0.1391
     53 H25         1.9619  -12.7286   -0.0260 H         1 <0>         0.1392
     54 H26         0.8676  -10.5379    0.2070 H         1 <0>         0.1260
     55 H27         3.3274   -2.7585    0.3695 H         1 <0>         0.3868
     56 H28        -0.4172   -0.5070   -1.4929 H         1 <0>         0.4233
     57 H29         0.0882   -8.7264    2.0542 H         1 <0>         0.4668
@<TRIPOS>BOND
     1    1    2 1
     2    1   29 1
     3    1   30 1
     4    1   31 1
     5    2    7 1
     6    2    3 1
     7    2   56 1
     8    3    4 1
     9    3   32 1
    10    3   33 1
    11    4    5 1
    12    4   34 1
    13    4   35 1
    14    5    6 1
    15    5    8 1
    16    5   28 1
    17    6    7 1
    18    6   36 1
    19    6   37 1
    20    7   38 1
    21    7   39 1
    22    8    9 1
    23    8   40 1
    24    8   41 1
    25    9   10 1
    26    9   42 1
    27    9   43 1
    28   10   14 1
    29   10   11 1
    30   11   12 2
    31   11   44 1
    32   12   13 1
    33   12   57 1
    34   13   14 2
    35   13   22 1
    36   14   15 1
    37   15   20 ar
    38   15   16 ar
    39   16   17 ar
    40   16   45 1
    41   17   18 ar
    42   17   46 1
    43   18   19 ar
    44   18   21 1
    45   19   20 ar
    46   19   47 1
    47   20   48 1
    48   21   49 1
    49   22   27 ar
    50   22   23 ar
    51   23   24 ar
    52   23   50 1
    53   24   25 ar
    54   24   51 1
    55   25   26 ar
    56   25   52 1
    57   26   27 ar
    58   26   53 1
    59   27   54 1
    60   28   55 1
@<TRIPOS>MOLECULE
ZINC11661752
   61    63     0     0     0
SMALL
USER_CHARGES
(2R)-1-[2-methoxy-6-[(2-pyrazin-2-ylethylamino)methyl]phenoxy]-3-morpholino-propan-2-ol
@<TRIPOS>ATOM
      1 C1          3.6841    1.2923    8.0302 C.3       1 <0>         0.0173
      2 O1          3.0414    1.8347    6.8749 O.3       1 <0>        -0.3036
      3 C2          1.9210    1.2005    6.4369 C.ar      1 <0>         0.1288
      4 C3          1.4510    0.0808    7.1043 C.ar      1 <0>        -0.1648
      5 C4          0.3122   -0.5630    6.6574 C.ar      1 <0>        -0.0640
      6 C5         -0.3633   -0.0890    5.5481 C.ar      1 <0>        -0.1114
      7 C6          0.1032    1.0245    4.8746 C.ar      1 <0>        -0.1432
      8 C7          1.2441    1.6744    5.3172 C.ar      1 <0>         0.0650
      9 O2          1.7016    2.7727    4.6586 O.3       1 <0>        -0.3137
     10 C8          1.2061    4.0415    5.0906 C.3       1 <0>         0.0285
     11 C9          1.8287    5.1493    4.2385 C.3       1 <0>         0.0876
     12 H1          1.6413    4.9455    3.1843 H         1 <0>         0.1267
     13 C10         1.2058    6.4946    4.6166 C.3       1 <0>        -0.0416
     14 C11         1.5903    8.8766    4.4033 C.3       1 <0>        -0.0390
     15 C12         2.2691    9.9446    3.5416 C.3       1 <0>         0.0332
     16 O3          1.7473    9.8793    2.2116 O.3       1 <0>        -0.3527
     17 C13         1.9297    8.6075    1.5834 C.3       1 <0>         0.0338
     18 C14         1.2474    7.5260    2.4253 C.3       1 <0>        -0.0408
     19 O4          3.2379    5.1945    4.4717 O.3       1 <0>        -0.5404
     20 C15        -0.6327    1.5352    3.6627 C.3       1 <0>         0.0585
     21 C16        -0.6373    1.5614    1.2415 C.3       1 <0>         0.0028
     22 C17         0.1051    1.0696   -0.0026 C.3       1 <0>        -0.0868
     23 C18        -0.6036    1.5622   -1.2380 C.ar      1 <0>         0.0517
     24 C19         0.0901    2.2870   -2.1911 C.ar      1 <0>         0.0663
     25 N1         -0.5312    2.7184   -3.2744 N.ar      1 <0>        -0.4287
     26 C20        -1.8152    2.4577   -3.4477 C.ar      1 <0>         0.0708
     27 C21        -2.5087    1.7331   -2.4949 C.ar      1 <0>         0.0632
     28 N2         -1.8861    1.2973   -1.4137 N.ar      1 <0>        -0.4360
     29 H2          4.5623    1.8910    8.2721 H         1 <0>         0.1137
     30 H3          2.9915    1.3068    8.8718 H         1 <0>         0.0646
     31 H4          3.9889    0.2655    7.8281 H         1 <0>         0.0668
     32 H5          1.9747   -0.2893    7.9733 H         1 <0>         0.1496
     33 H6         -0.0530   -1.4356    7.1785 H         1 <0>         0.1485
     34 H7         -1.2549   -0.5922    5.2045 H         1 <0>         0.1455
     35 H8          0.1219    4.0647    4.9808 H         1 <0>         0.0724
     36 H9          1.4687    4.1970    6.1370 H         1 <0>         0.0798
     37 H10         0.1297    6.4570    4.4477 H         1 <0>         0.1447
     38 H11         1.4015    6.7028    5.6685 H         1 <0>         0.1411
     39 H12         0.5227    9.0863    4.4688 H         1 <0>         0.1423
     40 H13         2.0254    8.8846    5.4027 H         1 <0>         0.1431
     41 H14         3.3441    9.7656    3.5200 H         1 <0>         0.0842
     42 H15         2.0727   10.9310    3.9616 H         1 <0>         0.1463
     43 H16         2.9948    8.3897    1.5049 H         1 <0>         0.0839
     44 H17         1.4870    8.6267    0.5875 H         1 <0>         0.1432
     45 H18         1.4322    6.5481    1.9808 H         1 <0>         0.1350
     46 H19         0.1742    7.7134    2.4593 H         1 <0>         0.1409
     47 H20         3.4789    5.3722    5.3911 H         1 <0>         0.3964
     48 H21        -0.6539    2.6248    3.6829 H         1 <0>         0.1273
     49 H22        -1.6530    1.1518    3.6689 H         1 <0>         0.1455
     50 H23        -0.6585    2.6512    1.2450 H         1 <0>         0.1263
     51 H24        -1.6576    1.1782    1.2309 H         1 <0>         0.1439
     52 H25         0.1263   -0.0202   -0.0060 H         1 <0>         0.1115
     53 H26         1.1255    1.4528    0.0080 H         1 <0>         0.1067
     54 H27         1.1395    2.4997   -2.0497 H         1 <0>         0.1706
     55 H28        -2.3230    2.8100   -4.3334 H         1 <0>         0.1818
     56 H29        -3.5579    1.5201   -2.6365 H         1 <0>         0.1819
     57 N3          1.8213    7.5530    3.7869 N.4       1 <0>        -0.3926
     58 H30         2.8323    7.3843    3.7268 H         1 <0>         0.4341
     59 N4          0.0625    1.0753    2.4457 N.4       1 <0>        -0.5192
     60 H31         0.0825    0.0488    2.4346 H         1 <0>         0.4381
     61 H32         1.0237    1.4363    2.4478 H         1 <0>         0.4342
@<TRIPOS>BOND
     1    1    2 1
     2    1   29 1
     3    1   30 1
     4    1   31 1
     5    2    3 1
     6    3    8 ar
     7    3    4 ar
     8    4    5 ar
     9    4   32 1
    10    5    6 ar
    11    5   33 1
    12    6    7 ar
    13    6   34 1
    14    7    8 ar
    15    7   20 1
    16    8    9 1
    17    9   10 1
    18   10   11 1
    19   10   35 1
    20   10   36 1
    21   11   12 1
    22   11   13 1
    23   11   19 1
    24   13   37 1
    25   13   38 1
    26   13   57 1
    27   14   15 1
    28   14   39 1
    29   14   40 1
    30   14   57 1
    31   15   16 1
    32   15   41 1
    33   15   42 1
    34   16   17 1
    35   17   18 1
    36   17   43 1
    37   17   44 1
    38   18   45 1
    39   18   46 1
    40   18   57 1
    41   19   47 1
    42   20   48 1
    43   20   49 1
    44   20   59 1
    45   21   22 1
    46   21   50 1
    47   21   51 1
    48   21   59 1
    49   22   23 1
    50   22   52 1
    51   22   53 1
    52   23   28 ar
    53   23   24 ar
    54   24   25 ar
    55   24   54 1
    56   25   26 ar
    57   26   27 ar
    58   26   55 1
    59   27   28 ar
    60   27   56 1
    61   57   58 1
    62   59   60 1
    63   59   61 1
@<TRIPOS>MOLECULE
ZINC38592335
   57    59     0     0     0
SMALL
USER_CHARGES

@<TRIPOS>ATOM
      1 C1         -0.8427    0.8845    0.6745 C.3       1 <0>        -0.1574
      2 C2         -0.3151   -0.5491    0.5889 C.3       1 <0>         0.0499
      3 O1          0.5493   -0.8055    1.6975 O.3       1 <0>        -0.3173
      4 C3          1.1496   -2.0054    1.7374 C.2       1 <0>         0.4651
      5 O2          1.0288   -2.7724    0.8117 O.2       1 <0>        -0.4483
      6 C4          1.9743   -2.3959    2.9368 C.3       1 <0>         0.1359
      7 H1          1.7394   -1.7472    3.7807 H         1 <0>         0.2087
      8 C5          3.4478   -2.3084    2.6068 C.2       1 <0>         0.2730
      9 C6          3.9471   -3.5875    2.7742 C.ar      1 <0>        -0.1429
     10 C7          5.2443   -4.1346    2.6161 C.ar      1 <0>        -0.1005
     11 C8          5.4504   -5.4567    2.8540 C.ar      1 <0>         0.1233
     12 C9          4.4055   -6.3010    3.2544 C.ar      1 <0>        -0.0130
     13 C10         3.1420   -5.8436    3.4240 C.ar      1 <0>        -0.1537
     14 C11         2.8486   -4.4738    3.1955 C.ar      1 <0>         0.3310
     15 N1          1.7202   -3.7961    3.2902 N.pl3     1 <0>        -0.5832
     16 O3          6.6994   -5.9728    2.6994 O.3       1 <0>        -0.2970
     17 C12         6.8619   -7.3680    2.9621 C.3       1 <0>         0.0109
     18 N2          4.1406   -1.1982    2.2228 N.am      1 <0>        -0.5995
     19 C13         3.5364    0.0065    2.2222 C.2       1 <0>         0.4930
     20 O4          2.4076    0.1188    2.6501 O.2       1 <0>        -0.4440
     21 C14         4.2639    1.2140    1.6896 C.3       1 <0>        -0.0244
     22 N3          3.4863    2.4245    1.9864 N.4       1 <0>        -0.3745
     23 C15         2.2556    2.4221    1.1866 C.3       1 <0>        -0.0303
     24 C16         1.4034    3.6396    1.5512 C.3       1 <0>        -0.1258
     25 C17         2.1983    4.9167    1.2639 C.3       1 <0>        -0.1257
     26 C18         3.5141    4.8740    2.0462 C.3       1 <0>        -0.1408
     27 C19         4.2881    3.6108    1.6632 C.3       1 <0>        -0.0050
     28 C20         1.3953    6.1173    1.6936 C.2       1 <0>         0.5190
     29 O5          0.2951    5.9680    2.1817 O.2       1 <0>        -0.5262
     30 N4          1.8997    7.3571    1.5353 N.am      1 <0>        -0.8474
     31 H2         -0.0097    1.5834    0.5985 H         1 <0>         0.0595
     32 H3         -1.5427    1.0634   -0.1417 H         1 <0>         0.0976
     33 H4         -1.3517    1.0281    1.6276 H         1 <0>         0.0799
     34 H5         -1.1525   -1.2465    0.6122 H         1 <0>         0.0853
     35 H6          0.2388   -0.6775   -0.3411 H         1 <0>         0.0782
     36 H7          6.0652   -3.5042    2.3077 H         1 <0>         0.1629
     37 H8          4.6137   -7.3456    3.4324 H         1 <0>         0.1752
     38 H9          2.3590   -6.5202    3.7331 H         1 <0>         0.1769
     39 H10         6.2231   -7.9411    2.2901 H         1 <0>         0.0694
     40 H11         7.9028   -7.6491    2.8016 H         1 <0>         0.1222
     41 H12         6.5840   -7.5781    3.9949 H         1 <0>         0.0694
     42 H13         5.0683   -1.2757    1.9501 H         1 <0>         0.4519
     43 H14         5.2432    1.2862    2.1627 H         1 <0>         0.1796
     44 H15         4.3877    1.1172    0.6110 H         1 <0>         0.1807
     45 H16         2.5110    2.4618    0.1276 H         1 <0>         0.1346
     46 H17         1.6926    1.5111    1.3897 H         1 <0>         0.1508
     47 H18         0.4910    3.6369    0.9549 H         1 <0>         0.1246
     48 H19         1.1473    3.6007    2.6099 H         1 <0>         0.1030
     49 H20         2.4106    4.9816    0.1968 H         1 <0>         0.1199
     50 H21         4.1103    5.7537    1.8037 H         1 <0>         0.1255
     51 H22         3.3018    4.8607    3.1152 H         1 <0>         0.1000
     52 H23         5.2256    3.5774    2.2182 H         1 <0>         0.1436
     53 H24         4.5001    3.6252    0.5941 H         1 <0>         0.1407
     54 H25         2.7795    7.4765    1.1449 H         1 <0>         0.4037
     55 H26         1.3828    8.1299    1.8119 H         1 <0>         0.4148
     56 H27         0.8615   -4.1641    3.5509 H         1 <0>         0.4643
     57 H28         3.2479    2.4379    2.9668 H         1 <0>         0.4330
@<TRIPOS>BOND
     1    1    2 1
     2    1   31 1
     3    1   32 1
     4    1   33 1
     5    2    3 1
     6    2   34 1
     7    2   35 1
     8    3    4 1
     9    4    5 2
    10    4    6 1
    11    6    7 1
    12    6   15 1
    13    6    8 1
    14    8    9 2
    15    8   18 1
    16    9   14 ar
    17    9   10 ar
    18   10   11 ar
    19   10   36 1
    20   11   12 ar
    21   11   16 1
    22   12   13 ar
    23   12   37 1
    24   13   14 ar
    25   13   38 1
    26   14   15 2
    27   15   56 1
    28   16   17 1
    29   17   39 1
    30   17   40 1
    31   17   41 1
    32   18   19 am
    33   18   42 1
    34   19   20 2
    35   19   21 1
    36   21   22 1
    37   21   43 1
    38   21   44 1
    39   22   27 1
    40   22   23 1
    41   22   57 1
    42   23   24 1
    43   23   45 1
    44   23   46 1
    45   24   25 1
    46   24   47 1
    47   24   48 1
    48   25   26 1
    49   25   28 1
    50   25   49 1
    51   26   27 1
    52   26   50 1
    53   26   51 1
    54   27   52 1
    55   27   53 1
    56   28   29 2
    57   28   30 am
    58   30   54 1
    59   30   55 1
@<TRIPOS>MOLECULE
ZINC39630157
   63    66     0     0     0
SMALL
USER_CHARGES

@<TRIPOS>ATOM
      1 C1         -0.0557    1.5183   -0.0005 C.3       1 <0>        -0.1215
      2 C2         -0.0282    0.0116   -0.0091 C.ar      1 <0>        -0.1097
      3 C3         -0.0257   -0.6715   -1.2115 C.ar      1 <0>        -0.0577
      4 C4         -0.0009   -2.0546   -1.2299 C.ar      1 <0>        -0.1176
      5 C5          0.0218   -2.7648   -0.0460 C.ar      1 <0>         0.0210
      6 C6          0.0199   -2.0831    1.1740 C.ar      1 <0>        -0.1596
      7 C7          0.0001   -0.6844    1.1850 C.ar      1 <0>         0.1407
      8 F1          0.0031   -0.0159    2.3591 F         1 <0>        -0.1211
      9 C8          0.0437   -2.8349    2.4442 C.2       1 <0>         0.6053
     10 O1          1.1062   -3.1260    2.9585 O.2       1 <0>        -0.5054
     11 N1         -1.1125   -3.1987    3.0336 N.am      1 <0>        -0.6097
     12 C9         -2.4931   -2.9434    2.5599 C.3       1 <0>         0.1147
     13 C10        -3.2635   -4.2432    2.8832 C.3       1 <0>        -0.1117
     14 H1         -4.2781   -4.0123    3.2076 H         1 <0>         0.1183
     15 C11        -2.4703   -4.8947    4.0285 C.3       1 <0>        -0.0733
     16 C12        -1.2900   -3.9504    4.2992 C.3       1 <0>         0.1059
     17 C13        -3.3445   -5.0196    5.2726 C.3       1 <0>        -0.1319
     18 C14        -2.5527   -5.7227    6.3787 C.3       1 <0>        -0.0121
     19 N2         -2.1343   -7.0510    5.9151 N.4       1 <0>        -0.5038
     20 C15        -1.2193   -6.9180    4.7749 C.3       1 <0>        -0.0112
     21 C16        -1.9548   -6.2656    3.6009 C.3       1 <0>        -0.1438
     22 C17        -3.2919   -5.1495    1.6796 C.2       1 <0>         0.5125
     23 O2         -2.4226   -5.0673    0.8379 O.2       1 <0>        -0.4877
     24 N3         -4.2834   -6.0515    1.5385 N.am      1 <0>        -0.7374
     25 C18        -4.3111   -6.9326    0.3684 C.3       1 <0>         0.1212
     26 C19        -5.5303   -7.8532    0.4519 C.3       1 <0>        -0.1526
     27 C20        -5.5592   -8.7733   -0.7701 C.3       1 <0>         0.0951
     28 N4         -6.7266   -9.6548   -0.6902 N.pl3     1 <0>        -0.4120
     29 C21        -6.7755  -10.8859   -0.0939 C.2       1 <0>         0.0210
     30 C22        -8.0318  -11.3449   -0.2501 C.2       1 <0>         0.0093
     31 N5         -8.7311  -10.4193   -0.9234 N.pl3     1 <0>        -0.4742
     32 C23        -7.9570   -9.4019   -1.1859 C.cat     1 <0>         0.2919
     33 Cl1         0.0522   -4.5003   -0.0729 Cl        1 <0>        -0.0278
     34 H2          0.9650    1.9004   -0.0118 H         1 <0>         0.0852
     35 H3         -0.5878    1.8770   -0.8817 H         1 <0>         0.0822
     36 H4         -0.5644    1.8673    0.8981 H         1 <0>         0.0752
     37 H5         -0.0434   -0.1222   -2.1412 H         1 <0>         0.1521
     38 H6          0.0002   -2.5805   -2.1732 H         1 <0>         0.1487
     39 H7         -2.9289   -2.1001    3.0957 H         1 <0>         0.0921
     40 H8         -2.4979   -2.7560    1.4861 H         1 <0>         0.0983
     41 H9         -0.3916   -4.5225    4.5312 H         1 <0>         0.0908
     42 H10        -1.5299   -3.2694    5.1158 H         1 <0>         0.0891
     43 H11        -3.6395   -4.0264    5.6112 H         1 <0>         0.1239
     44 H12        -4.2342   -5.6028    5.0351 H         1 <0>         0.0951
     45 H13        -1.6717   -5.1307    6.6270 H         1 <0>         0.1355
     46 H14        -3.1802   -5.8280    7.2637 H         1 <0>         0.1422
     47 H15        -1.6659   -7.5357    6.6658 H         1 <0>         0.4366
     48 H16        -0.3701   -6.2976    5.0613 H         1 <0>         0.1367
     49 H17        -0.8639   -7.9046    4.4776 H         1 <0>         0.1383
     50 H18        -2.7946   -6.8936    3.3034 H         1 <0>         0.0921
     51 H19        -1.2699   -6.1510    2.7608 H         1 <0>         0.1222
     52 H20        -4.9786   -6.1173    2.2117 H         1 <0>         0.3992
     53 H21        -4.3717   -6.3307   -0.5383 H         1 <0>         0.0819
     54 H22        -3.4024   -7.5342    0.3450 H         1 <0>         0.0778
     55 H23        -5.4697   -8.4551    1.3586 H         1 <0>         0.0849
     56 H24        -6.4389   -7.2515    0.4752 H         1 <0>         0.0880
     57 H25        -5.6198   -8.1714   -1.6769 H         1 <0>         0.1277
     58 H26        -4.6505   -9.3750   -0.7935 H         1 <0>         0.1280
     59 H27        -5.9626  -11.3921    0.4055 H         1 <0>         0.2222
     60 H28        -8.4101  -12.2922    0.1047 H         1 <0>         0.2253
     61 H29        -8.2511   -8.5072   -1.7145 H         1 <0>         0.2610
     62 H30        -2.9468   -7.5786    5.6328 H         1 <0>         0.4245
     63 H31        -9.6656  -10.4928   -1.1725 H         1 <0>         0.4681
@<TRIPOS>BOND
     1    1    2 1
     2    1   34 1
     3    1   35 1
     4    1   36 1
     5    2    7 ar
     6    2    3 ar
     7    3    4 ar
     8    3   37 1
     9    4    5 ar
    10    4   38 1
    11    5    6 ar
    12    5   33 1
    13    6    7 ar
    14    6    9 1
    15    7    8 1
    16    9   10 2
    17    9   11 am
    18   11   16 1
    19   11   12 1
    20   12   13 1
    21   12   39 1
    22   12   40 1
    23   13   14 1
    24   13   15 1
    25   13   22 1
    26   15   21 1
    27   15   16 1
    28   15   17 1
    29   16   41 1
    30   16   42 1
    31   17   18 1
    32   17   43 1
    33   17   44 1
    34   18   19 1
    35   18   45 1
    36   18   46 1
    37   19   20 1
    38   19   47 1
    39   19   62 1
    40   20   21 1
    41   20   48 1
    42   20   49 1
    43   21   50 1
    44   21   51 1
    45   22   23 2
    46   22   24 am
    47   24   25 1
    48   24   52 1
    49   25   26 1
    50   25   53 1
    51   25   54 1
    52   26   27 1
    53   26   55 1
    54   26   56 1
    55   27   28 1
    56   27   57 1
    57   27   58 1
    58   28   32 1
    59   28   29 1
    60   29   30 2
    61   29   59 1
    62   30   31 1
    63   30   60 1
    64   31   32 2
    65   31   63 1
    66   32   61 1
@<TRIPOS>MOLECULE
ZINC36095703
   62    64     0     0     0
SMALL
USER_CHARGES

@<TRIPOS>ATOM
      1 C1         -0.0187    1.5258    0.0104 C.3       1 <0>        -0.1554
      2 C2          0.0021   -0.0041    0.0020 C.3       1 <0>         0.0784
      3 O1          0.6709   -0.4649   -1.1737 O.3       1 <0>        -0.3601
      4 C3          0.7758   -1.7975   -1.3346 C.2       1 <0>         0.6555
      5 O2          0.3120   -2.5487   -0.4996 O.2       1 <0>        -0.5447
      6 N1          1.3951   -2.2983   -2.4219 N.am      1 <0>        -0.6126
      7 C4          1.9661   -1.4018   -3.4368 C.3       1 <0>         0.0984
      8 C5          3.4470   -1.7538   -3.6242 C.3       1 <0>         0.0435
      9 N2          3.5639   -3.2062   -3.8158 N.pl3     1 <0>        -0.3943
     10 C6          2.9930   -4.1027   -2.8009 C.3       1 <0>         0.0440
     11 C7          1.5169   -3.7507   -2.6107 C.3       1 <0>         0.1126
     12 C8          4.1627   -3.6903   -4.8669 C.2       1 <0>         0.3578
     13 C9          4.4526   -5.0597   -5.3781 C.2       1 <0>         0.2183
     14 C10         5.1014   -4.3804   -6.5166 C.2       1 <0>         0.1212
     15 O3          5.7313   -4.8384   -7.6247 O.3       1 <0>        -0.4071
     16 C11         4.8296   -3.1101   -6.0490 C.2       1 <0>         0.0367
     17 O4          5.0737   -1.8534   -6.4913 O.3       1 <0>        -0.4102
     18 N3          4.2349   -6.2865   -4.9969 N.2       1 <0>        -0.4164
     19 C12         4.7031   -7.4036   -5.8210 C.3       1 <0>         0.0366
     20 C13         5.7723   -8.1877   -5.0575 C.3       1 <0>        -0.1468
     21 C14         6.2612   -9.3543   -5.9182 C.3       1 <0>        -0.0081
     22 N4          7.2878  -10.1071   -5.1851 N.4       1 <0>        -0.3823
     23 C15         6.6869  -10.7179   -3.9933 C.3       1 <0>        -0.0130
     24 C16         7.7684  -11.4357   -3.1830 C.3       1 <0>        -0.1458
     25 C17         8.4090  -12.5244   -4.0487 C.3       1 <0>        -0.1374
     26 C18         8.9669  -11.8863   -5.3241 C.3       1 <0>        -0.1099
     27 H1          9.7537  -11.1786   -5.0628 H         1 <0>         0.0936
     28 C19         7.8410  -11.1519   -6.0551 C.3       1 <0>        -0.0056
     29 C20         9.5409  -12.9761   -6.2317 C.3       1 <0>        -0.1538
     30 H2          1.0039    1.9031    0.0027 H         1 <0>         0.0683
     31 H3         -0.5459    1.8868   -0.8726 H         1 <0>         0.0698
     32 H4         -0.5289    1.8773    0.9072 H         1 <0>         0.0909
     33 H5          0.5293   -0.3651    0.8851 H         1 <0>         0.0742
     34 H6         -1.0205   -0.3814    0.0098 H         1 <0>         0.0755
     35 H7          1.4366   -1.5332   -4.3805 H         1 <0>         0.0971
     36 H8          1.8750   -0.3678   -3.1043 H         1 <0>         0.1397
     37 H9          3.8379   -1.2366   -4.5005 H         1 <0>         0.1406
     38 H10         4.0088   -1.4551   -2.7392 H         1 <0>         0.1374
     39 H11         3.0840   -5.1368   -3.1334 H         1 <0>         0.1403
     40 H12         3.5224   -3.9713   -1.8572 H         1 <0>         0.1363
     41 H13         1.1294   -4.2675   -1.7327 H         1 <0>         0.1417
     42 H14         0.9547   -4.0532   -3.4942 H         1 <0>         0.0972
     43 H15         3.8651   -8.0616   -6.0512 H         1 <0>         0.1279
     44 H16         5.1277   -7.0183   -6.7480 H         1 <0>         0.0851
     45 H17         6.6103   -7.5297   -4.8273 H         1 <0>         0.0915
     46 H18         5.3477   -8.5730   -4.1305 H         1 <0>         0.1059
     47 H19         5.4232  -10.0122   -6.1483 H         1 <0>         0.1372
     48 H20         6.6859   -8.9690   -6.8452 H         1 <0>         0.1356
     49 H21         6.2286   -9.9422   -3.3799 H         1 <0>         0.1291
     50 H22         5.9255  -11.4358   -4.2983 H         1 <0>         0.1316
     51 H23         8.5303  -10.7186   -2.8773 H         1 <0>         0.0874
     52 H24         7.3199  -11.8900   -2.2995 H         1 <0>         0.1151
     53 H25         9.2183  -13.0009   -3.4954 H         1 <0>         0.0973
     54 H26         7.6581  -13.2693   -4.3122 H         1 <0>         0.0843
     55 H27         7.0550  -11.8605   -6.3161 H         1 <0>         0.1315
     56 H28         8.2348  -10.6965   -6.9638 H         1 <0>         0.1315
     57 H29         8.7534  -13.6826   -6.4939 H         1 <0>         0.0688
     58 H30         9.9378  -12.5213   -7.1393 H         1 <0>         0.0693
     59 H31        10.3404  -13.5008   -5.7086 H         1 <0>         0.0803
     60 H32         6.0629   -4.1401   -8.2057 H         1 <0>         0.4327
     61 H33         8.0262   -9.4799   -4.9031 H         1 <0>         0.4221
     62 H34         5.5501   -1.8179   -7.3320 H         1 <0>         0.4339
@<TRIPOS>BOND
     1    1    2 1
     2    1   30 1
     3    1   31 1
     4    1   32 1
     5    2    3 1
     6    2   33 1
     7    2   34 1
     8    3    4 1
     9    4    5 2
    10    4    6 am
    11    6   11 1
    12    6    7 1
    13    7    8 1
    14    7   35 1
    15    7   36 1
    16    8    9 1
    17    8   37 1
    18    8   38 1
    19    9   10 1
    20    9   12 2
    21   10   11 1
    22   10   39 1
    23   10   40 1
    24   11   41 1
    25   11   42 1
    26   12   16 1
    27   12   13 1
    28   13   14 1
    29   13   18 2
    30   14   15 1
    31   14   16 2
    32   15   60 1
    33   16   17 1
    34   17   62 1
    35   18   19 1
    36   19   20 1
    37   19   43 1
    38   19   44 1
    39   20   21 1
    40   20   45 1
    41   20   46 1
    42   21   22 1
    43   21   47 1
    44   21   48 1
    45   22   28 1
    46   22   23 1
    47   22   61 1
    48   23   24 1
    49   23   49 1
    50   23   50 1
    51   24   25 1
    52   24   51 1
    53   24   52 1
    54   25   26 1
    55   25   53 1
    56   25   54 1
    57   26   27 1
    58   26   28 1
    59   26   29 1
    60   28   55 1
    61   28   56 1
    62   29   57 1
    63   29   58 1
    64   29   59 1
@<TRIPOS>MOLECULE
ZINC64066662
   56    58     0     0     0
SMALL
USER_CHARGES

@<TRIPOS>ATOM
      1 C1          2.1954    1.1541    1.9835 C.3       1 <0>        -0.1555
      2 C2          1.7327   -0.3029    1.9226 C.3       1 <0>        -0.5824
      3 S1          3.0758   -1.3374    1.2771 S.o2      1 <0>         2.4083
      4 O1          3.3256   -0.9606   -0.0701 O.2       1 <0>        -0.8642
      5 O2          4.1471   -1.3169    2.2103 O.2       1 <0>        -0.8881
      6 C3          2.3418   -2.9963    1.2823 C.3       1 <0>        -0.2973
      7 H1          3.0646   -3.7279    0.9210 H         1 <0>         0.1830
      8 N1          1.8976   -3.3490    2.6355 N.pl3     1 <0>        -0.4941
      9 C4          0.7399   -3.8872    2.6080 C.2       1 <0>         0.3456
     10 C5          0.2479   -3.9609    1.1797 C.3       1 <0>         0.0285
     11 N2          1.1242   -3.0196    0.4368 N.3       1 <0>        -0.4533
     12 C6          1.4265   -3.5288   -0.9076 C.3       1 <0>         0.0646
     13 C7          0.1430   -3.7110   -1.6760 C.ar      1 <0>        -0.1121
     14 C8         -0.4617   -4.9531   -1.7270 C.ar      1 <0>        -0.1186
     15 C9         -1.6390   -5.1203   -2.4319 C.ar      1 <0>        -0.1202
     16 C10        -2.2119   -4.0453   -3.0854 C.ar      1 <0>        -0.0990
     17 C11        -1.6077   -2.8031   -3.0337 C.ar      1 <0>        -0.1117
     18 C12        -0.4327   -2.6349   -2.3253 C.ar      1 <0>        -0.0860
     19 C13        -1.2127   -3.5135    1.0939 C.3       1 <0>         0.0615
     20 N3         -2.0557   -4.4445    1.8557 N.3       1 <0>        -0.5602
     21 C14        -2.2294   -5.7106    1.1313 C.3       1 <0>        -0.0138
     22 C15        -3.3550   -3.8378    2.1745 C.3       1 <0>         0.1009
     23 C16        -4.0044   -4.6030    3.2988 C.cat     1 <0>         0.3149
     24 H2         -5.5244   -3.3373    3.9365 H         1 <0>         0.4652
     25 N4         -3.6412   -5.7814    3.7261 N.pl3     1 <0>        -0.4636
     26 C17        -4.4420   -6.1517    4.7363 C.2       1 <0>        -0.0042
     27 C18        -5.3354   -5.1654    4.9429 C.2       1 <0>         0.0801
     28 N5         -5.0548   -4.1804    4.0347 N.pl3     1 <0>        -0.5045
     29 C19        -6.4298   -5.1470    5.9786 C.3       1 <0>        -0.1083
     30 H3          3.0622    1.2329    2.6397 H         1 <0>         0.0809
     31 H4          2.4653    1.4918    0.9829 H         1 <0>         0.0853
     32 H5          1.3884    1.7757    2.3714 H         1 <0>         0.0988
     33 H6          1.4628   -0.6406    2.9232 H         1 <0>         0.1246
     34 H7          0.8659   -0.3817    1.2664 H         1 <0>         0.1516
     35 H8          2.4137   -3.1943    3.4421 H         1 <0>         0.4700
     36 H9          0.1952   -4.2365    3.4727 H         1 <0>         0.2494
     37 H10         2.0652   -2.8171   -1.4306 H         1 <0>         0.1336
     38 H11         1.9404   -4.4866   -0.8262 H         1 <0>         0.0798
     39 H12        -0.0141   -5.7929   -1.2164 H         1 <0>         0.1187
     40 H13        -2.1111   -6.0908   -2.4723 H         1 <0>         0.1287
     41 H14        -3.1313   -4.1761   -3.6367 H         1 <0>         0.1311
     42 H15        -2.0551   -1.9633   -3.5446 H         1 <0>         0.1338
     43 H16         0.0374   -1.6636   -2.2818 H         1 <0>         0.1344
     44 H17        -1.3106   -2.5109    1.5102 H         1 <0>         0.1137
     45 H18        -1.5298   -3.5064    0.0510 H         1 <0>         0.1061
     46 H19        -1.2608   -6.1956    1.0099 H         1 <0>         0.0934
     47 H20        -2.8946   -6.3639    1.6959 H         1 <0>         0.0697
     48 H21        -2.6616   -5.5118    0.1506 H         1 <0>         0.0714
     49 H22        -3.2074   -2.8014    2.4781 H         1 <0>         0.1399
     50 H23        -3.9971   -3.8707    1.2943 H         1 <0>         0.1154
     51 H24        -4.3811   -7.0784    5.2875 H         1 <0>         0.2279
     52 H25        -6.0519   -4.7013    6.8987 H         1 <0>         0.1073
     53 H26        -7.2703   -4.5597    5.6088 H         1 <0>         0.0962
     54 H27        -6.7590   -6.1670    6.1775 H         1 <0>         0.1134
     55 H28         0.3606   -4.9726    0.7899 H         1 <0>         0.1485
     56 H29        -2.9078   -6.3065    3.3694 H         1 <0>         0.4612
@<TRIPOS>BOND
     1    1    2 1
     2    1   30 1
     3    1   31 1
     4    1   32 1
     5    2    3 1
     6    2   33 1
     7    2   34 1
     8    3    4 2
     9    3    5 2
    10    3    6 1
    11    6    7 1
    12    6   11 1
    13    6    8 1
    14    8    9 2
    15    8   35 1
    16    9   10 1
    17    9   36 1
    18   10   11 1
    19   10   19 1
    20   10   55 1
    21   11   12 1
    22   12   13 1
    23   12   37 1
    24   12   38 1
    25   13   18 ar
    26   13   14 ar
    27   14   15 ar
    28   14   39 1
    29   15   16 ar
    30   15   40 1
    31   16   17 ar
    32   16   41 1
    33   17   18 ar
    34   17   42 1
    35   18   43 1
    36   19   20 1
    37   19   44 1
    38   19   45 1
    39   20   21 1
    40   20   22 1
    41   21   46 1
    42   21   47 1
    43   21   48 1
    44   22   49 1
    45   22   50 1
    46   22   23 1
    47   23   28 1
    48   23   25 2
    49   24   28 1
    50   25   26 1
    51   25   56 1
    52   26   27 2
    53   26   51 1
    54   27   28 1
    55   27   29 1
    56   29   52 1
    57   29   53 1
    58   29   54 1
@<TRIPOS>MOLECULE
ZINC11911453
   58    62     0     0     0
SMALL
USER_CHARGES
N-(9H-fluoren-9-yl)-6-[[methyl-[(2-methylthiazol-4-yl)methyl]amino]methyl]-2-oxo-1H-pyridine-3-carboxamide
@<TRIPOS>ATOM
      1 C1         -1.4280   15.7382   -6.8669 C.3       1 <0>        -0.0763
      2 C2         -1.4357   14.2995   -7.3155 C.2       1 <0>         0.1133
      3 N1         -2.3117   13.3578   -7.0511 N.2       1 <0>        -0.5159
      4 C3         -2.1699   12.1363   -7.5214 C.2       1 <0>        -0.0101
      5 C4         -1.0939   11.8670   -8.3040 C.2       1 <0>        -0.1953
      6 S1         -0.2921   13.4640   -8.3204 S.3       1 <0>         0.1314
      7 C5         -3.1808   11.0647   -7.2037 C.3       1 <0>         0.0819
      8 C6         -2.9962   11.4022   -4.8131 C.3       1 <0>        -0.0448
      9 C7         -3.6614    9.2428   -5.6831 C.3       1 <0>         0.0371
     10 C8         -3.1296    8.4986   -4.4854 C.2       1 <0>         0.0976
     11 C9         -3.9006    8.3882   -3.3735 C.2       1 <0>        -0.1591
     12 C10        -3.4257    7.6987   -2.2579 C.2       1 <0>         0.0441
     13 C11        -2.1506    7.1388   -2.3033 C.2       1 <0>        -0.2218
     14 C12        -1.3829    7.2806   -3.4881 C.2       1 <0>         0.5363
     15 O1         -0.2666    6.7958   -3.5549 O.2       1 <0>        -0.5128
     16 N2         -1.8915    7.9522   -4.5385 N.am      1 <0>        -0.6051
     17 H1         -1.3626    8.0463   -5.3462 H         1 <0>         0.4152
     18 C13        -1.6123    6.4084   -1.1457 C.2       1 <0>         0.5675
     19 O2         -2.3189    6.1957   -0.1785 O.2       1 <0>        -0.5288
     20 N3         -0.3363    5.9747   -1.1564 N.am      1 <0>        -0.6958
     21 C14         0.2332    5.3443    0.0372 C.3       1 <0>         0.2301
     22 C15        -0.0338    3.8592    0.0178 C.ar      1 <0>        -0.1046
     23 C16        -1.2032    3.1289    0.0073 C.ar      1 <0>        -0.0835
     24 C17        -1.1562    1.7462   -0.0155 C.ar      1 <0>        -0.1138
     25 C18         0.0634    1.0936   -0.0179 C.ar      1 <0>        -0.1105
     26 C19         1.2384    1.8163   -0.0080 C.ar      1 <0>        -0.0952
     27 C20         1.1987    3.2116    0.0101 C.ar      1 <0>        -0.0545
     28 C21         2.2869    4.2203    0.0237 C.ar      1 <0>        -0.0405
     29 C22         1.7344    5.4981    0.0399 C.ar      1 <0>        -0.1123
     30 C23         2.5510    6.6089    0.0543 C.ar      1 <0>        -0.0844
     31 C24         3.9264    6.4575    0.0526 C.ar      1 <0>        -0.1154
     32 C25         4.4848    5.1921    0.0365 C.ar      1 <0>        -0.1055
     33 C26         3.6753    4.0752    0.0225 C.ar      1 <0>        -0.0962
     34 H2         -0.5519   16.2416   -7.2758 H         1 <0>         0.0958
     35 H3         -2.3311   16.2344   -7.2224 H         1 <0>         0.1038
     36 H4         -1.3955   15.7792   -5.7782 H         1 <0>         0.1019
     37 H5         -0.8032   10.9440   -8.7835 H         1 <0>         0.2076
     38 H6         -3.1659   10.3073   -7.9874 H         1 <0>         0.1457
     39 H7         -4.1747   11.5084   -7.1459 H         1 <0>         0.1511
     40 H8         -2.6757   10.9373   -3.8808 H         1 <0>         0.1178
     41 H9         -2.3825   12.2811   -5.0106 H         1 <0>         0.1285
     42 H10        -4.0414   11.7002   -4.7301 H         1 <0>         0.1334
     43 H11        -3.6169    8.5979   -6.5607 H         1 <0>         0.1542
     44 H12        -4.6952    9.5355   -5.4993 H         1 <0>         0.1687
     45 H13        -4.8849    8.8322   -3.3539 H         1 <0>         0.1699
     46 H14        -4.0354    7.6034   -1.3716 H         1 <0>         0.1680
     47 H15         0.2050    6.0801   -1.9543 H         1 <0>         0.4182
     48 H16        -0.1914    5.7902    0.9366 H         1 <0>         0.1150
     49 H17        -2.1565    3.6364    0.0133 H         1 <0>         0.1275
     50 H18        -2.0730    1.1756   -0.0275 H         1 <0>         0.1293
     51 H19         0.0959    0.0142   -0.0322 H         1 <0>         0.1301
     52 H20         2.1886    1.3028   -0.0137 H         1 <0>         0.1260
     53 H21         2.1170    7.5977    0.0672 H         1 <0>         0.1231
     54 H22         4.5648    7.3285    0.0635 H         1 <0>         0.1303
     55 H23         5.5588    5.0780    0.0356 H         1 <0>         0.1312
     56 H24         4.1155    3.0890    0.0103 H         1 <0>         0.1276
     57 N4         -2.8191   10.4347   -5.9164 N.4       1 <0>        -0.3994
     58 H25        -1.8345   10.1456   -5.9516 H         1 <0>         0.4222
@<TRIPOS>BOND
     1    1    2 1
     2    1   34 1
     3    1   35 1
     4    1   36 1
     5    2    6 1
     6    2    3 2
     7    3    4 1
     8    4    5 2
     9    4    7 1
    10    5    6 1
    11    5   37 1
    12    7   38 1
    13    7   39 1
    14    7   57 1
    15    8   40 1
    16    8   41 1
    17    8   42 1
    18    8   57 1
    19    9   10 1
    20    9   43 1
    21    9   44 1
    22    9   57 1
    23   10   16 1
    24   10   11 2
    25   11   12 1
    26   11   45 1
    27   12   13 2
    28   12   46 1
    29   13   14 1
    30   13   18 1
    31   14   15 2
    32   14   16 am
    33   16   17 1
    34   18   19 2
    35   18   20 am
    36   20   21 1
    37   20   47 1
    38   21   29 1
    39   21   22 1
    40   21   48 1
    41   22   27 ar
    42   22   23 ar
    43   23   24 ar
    44   23   49 1
    45   24   25 ar
    46   24   50 1
    47   25   26 ar
    48   25   51 1
    49   26   27 ar
    50   26   52 1
    51   27   28 1
    52   28   33 ar
    53   28   29 ar
    54   29   30 ar
    55   30   31 ar
    56   30   53 1
    57   31   32 ar
    58   31   54 1
    59   32   33 ar
    60   32   55 1
    61   33   56 1
    62   57   58 1
@<TRIPOS>MOLECULE
ZINC32983902
   62    66     0     0     0
SMALL
USER_CHARGES
(2Z)-2-[(2-chlorophenyl)methylene]-N-[3-(3,4-dihydro-1H-isoquinolin-2-yl)propyl]-3-oxo-4H-1,4-benzoxazine-6-carboxamide
@<TRIPOS>ATOM
      1 C1         13.9072    5.5815    2.1145 C.ar      1 <0>        -0.0925
      2 C2         12.6886    5.8394    2.7146 C.ar      1 <0>        -0.1050
      3 C3         11.6242    4.9867    2.5031 C.ar      1 <0>        -0.0944
      4 C4         11.7694    3.8715    1.6908 C.ar      1 <0>        -0.1332
      5 C5         12.9837    3.6164    1.0907 C.ar      1 <0>        -0.0909
      6 C6         14.0532    4.4727    1.3055 C.ar      1 <0>        -0.1053
      7 C7         13.1884    2.4211    0.1958 C.3       1 <0>        -0.1072
      8 C8         12.0651    1.4071    0.4140 C.3       1 <0>        -0.0009
      9 N1         10.7759    2.1106    0.3208 N.4       1 <0>        -0.3978
     10 C9         10.5801    2.9683    1.4939 C.3       1 <0>         0.0454
     11 C10         9.6664    1.1592    0.1732 C.3       1 <0>        -0.0033
     12 C11         8.3362    1.8988    0.3295 C.3       1 <0>        -0.1656
     13 C12         7.1806    0.9079    0.1758 C.3       1 <0>         0.1256
     14 N2          5.9069    1.6161    0.3254 N.am      1 <0>        -0.7435
     15 C13         4.7447    0.9405    0.2277 C.2       1 <0>         0.5697
     16 O1          4.7534   -0.2566    0.0154 O.2       1 <0>        -0.5278
     17 C14         3.4614    1.6541    0.3785 C.ar      1 <0>        -0.1303
     18 C15         3.4504    3.0299    0.6225 C.ar      1 <0>        -0.0786
     19 C16         2.2523    3.6959    0.7639 C.ar      1 <0>        -0.1078
     20 C17         1.0539    3.0028    0.6648 C.ar      1 <0>         0.0972
     21 C18         1.0562    1.6277    0.4200 C.ar      1 <0>         0.1061
     22 C19         2.2562    0.9547    0.2774 C.ar      1 <0>        -0.0651
     23 N3         -0.1544    0.9287    0.3181 N.am      1 <0>        -0.6725
     24 C20        -1.3044    1.6317    0.1804 C.2       1 <0>         0.5505
     25 O2         -2.3783    1.0703    0.0701 O.2       1 <0>        -0.4836
     26 C21        -1.2054    3.1063    0.1739 C.2       1 <0>        -0.0177
     27 C22        -2.1383    3.8713   -0.4356 C.2       1 <0>        -0.0299
     28 C23        -2.0940    5.3352   -0.2972 C.ar      1 <0>        -0.0688
     29 C24        -1.3460    5.9222    0.7286 C.ar      1 <0>        -0.0773
     30 C25        -1.3052    7.2950    0.8485 C.ar      1 <0>        -0.1211
     31 C26        -2.0104    8.0927   -0.0364 C.ar      1 <0>        -0.0901
     32 C27        -2.7575    7.5208   -1.0506 C.ar      1 <0>        -0.1136
     33 C28        -2.8048    6.1479   -1.1878 C.ar      1 <0>        -0.0136
     34 Cl1        -3.7432    5.4319   -2.4607 Cl        1 <0>        -0.0553
     35 O3         -0.1277    3.6630    0.8066 O.3       1 <0>        -0.2243
     36 H1         14.7426    6.2461    2.2781 H         1 <0>         0.1365
     37 H2         12.5700    6.7061    3.3480 H         1 <0>         0.1371
     38 H3         10.6727    5.1890    2.9724 H         1 <0>         0.1334
     39 H4         15.0050    4.2715    0.8366 H         1 <0>         0.1345
     40 H5         13.1847    2.7452   -0.8554 H         1 <0>         0.1046
     41 H6         14.1536    1.9484    0.4303 H         1 <0>         0.1237
     42 H7         12.1224    0.6249   -0.3572 H         1 <0>         0.1394
     43 H8         12.1720    0.9498    1.4087 H         1 <0>         0.1311
     44 H9         10.4504    2.3338    2.3830 H         1 <0>         0.1350
     45 H10         9.6772    3.5784    1.3440 H         1 <0>         0.1401
     46 H11         9.7124    0.6939   -0.8225 H         1 <0>         0.1397
     47 H12         9.7459    0.3804    0.9459 H         1 <0>         0.1330
     48 H13         8.2902    2.3642    1.3252 H         1 <0>         0.0968
     49 H14         8.2567    2.6776   -0.4432 H         1 <0>         0.0972
     50 H15         7.2267    0.4425   -0.8198 H         1 <0>         0.0788
     51 H16         7.2601    0.1291    0.9486 H         1 <0>         0.0783
     52 H17         5.8991    2.6992    0.5175 H         1 <0>         0.4225
     53 H18         4.3814    3.5717    0.7001 H         1 <0>         0.1359
     54 H19         2.2458    4.7593    0.9525 H         1 <0>         0.1499
     55 H20         2.2615   -0.1088    0.0891 H         1 <0>         0.1501
     56 H21        -0.1591   -0.1708    0.3505 H         1 <0>         0.4513
     57 H22        -2.9306    3.3992   -1.0351 H         1 <0>         0.1680
     58 H23        -0.7987    5.3017    1.4227 H         1 <0>         0.1491
     59 H24        -0.7247    7.7494    1.6377 H         1 <0>         0.1340
     60 H25        -1.9774    9.1673    0.0658 H         1 <0>         0.1368
     61 H26        -3.3055    8.1499   -1.7365 H         1 <0>         0.1399
     62 H27        10.7888    2.7489   -0.5750 H         1 <0>         0.4463
@<TRIPOS>BOND
     1    1    6 ar
     2    1    2 ar
     3    1   36 1
     4    2    3 ar
     5    2   37 1
     6    3    4 ar
     7    3   38 1
     8    4   10 1
     9    4    5 ar
    10    5    6 ar
    11    5    7 1
    12    6   39 1
    13    7    8 1
    14    7   40 1
    15    7   41 1
    16    8    9 1
    17    8   42 1
    18    8   43 1
    19    9   10 1
    20    9   11 1
    21    9   62 1
    22   10   44 1
    23   10   45 1
    24   11   12 1
    25   11   46 1
    26   11   47 1
    27   12   13 1
    28   12   48 1
    29   12   49 1
    30   13   14 1
    31   13   50 1
    32   13   51 1
    33   14   15 am
    34   14   52 1
    35   15   16 2
    36   15   17 1
    37   17   22 ar
    38   17   18 ar
    39   18   19 ar
    40   18   53 1
    41   19   20 ar
    42   19   54 1
    43   20   35 1
    44   20   21 ar
    45   21   22 ar
    46   21   23 1
    47   22   55 1
    48   23   24 am
    49   23   56 1
    50   24   25 2
    51   24   26 1
    52   26   27 2
    53   26   35 1
    54   27   28 1
    55   27   57 1
    56   28   33 ar
    57   28   29 ar
    58   29   30 ar
    59   29   58 1
    60   30   31 ar
    61   30   59 1
    62   31   32 ar
    63   31   60 1
    64   32   33 ar
    65   32   61 1
    66   33   34 1
@<TRIPOS>MOLECULE
ZINC39638991
   66    70     0     0     0
SMALL
USER_CHARGES

@<TRIPOS>ATOM
      1 C1          0.1028    1.1806   -0.5557 C.ar      1 <0>        -0.1003
      2 C2          1.2665    1.9251   -0.4775 C.ar      1 <0>        -0.1177
      3 C3          2.4902    1.2925   -0.4057 C.ar      1 <0>        -0.0962
      4 C4          2.5529   -0.1025   -0.4116 C.ar      1 <0>        -0.0383
      5 C5          1.3745   -0.8476   -0.4903 C.ar      1 <0>        -0.0873
      6 C6          0.1576   -0.2020   -0.5620 C.ar      1 <0>        -0.1143
      7 C7          3.8596   -0.7867   -0.3355 C.2       1 <0>         0.0798
      8 C8          4.0515   -2.1385   -0.3386 C.2       1 <0>        -0.2045
      9 C9          5.4302   -2.3582   -0.2526 C.2       1 <0>        -0.0929
     10 C10         6.0278   -1.1181   -0.2001 C.2       1 <0>        -0.0982
     11 O1          5.0569   -0.1822   -0.2576 O.3       1 <0>        -0.1576
     12 C11         7.4669   -0.8599   -0.1040 C.2       1 <0>         0.6353
     13 O2          8.2507   -1.7903   -0.0635 O.2       1 <0>        -0.5116
     14 N1          7.9228    0.4077   -0.0604 N.am      1 <0>        -0.6182
     15 C12         7.1302    1.6594   -0.0913 C.3       1 <0>         0.1082
     16 C13         7.8399    2.5957    0.9123 C.3       1 <0>        -0.1136
     17 H1          7.3635    2.5344    1.8907 H         1 <0>         0.1122
     18 C14         9.2834    2.0703    0.9857 C.3       1 <0>        -0.0723
     19 C15         9.3300    0.8645    0.0359 C.3       1 <0>         0.1103
     20 C16        10.2616    3.1461    0.5239 C.3       1 <0>        -0.1466
     21 C17        11.6933    2.6204    0.6610 C.3       1 <0>        -0.0078
     22 N2         11.9535    2.2628    2.0606 N.4       1 <0>        -0.5043
     23 C18        11.0707    1.1633    2.4687 C.3       1 <0>        -0.0113
     24 C19         9.6126    1.6274    2.4082 C.3       1 <0>        -0.1347
     25 C20         7.8210    4.0159    0.4086 C.2       1 <0>         0.5200
     26 O3          7.8309    4.2365   -0.7840 O.2       1 <0>        -0.5180
     27 N3          7.7931    5.0408    1.2833 N.am      1 <0>        -0.7272
     28 C21         7.7746    6.4214    0.7937 C.3       1 <0>         0.1215
     29 C22         7.7442    7.3839    1.9826 C.3       1 <0>        -0.0876
     30 C23         7.7252    8.8041    1.4789 C.ar      1 <0>        -0.1265
     31 C24         8.9074    9.5093    1.3544 C.ar      1 <0>        -0.0865
     32 C25         8.8904   10.8120    0.8925 C.ar      1 <0>        -0.1268
     33 C26         7.6910   11.4111    0.5543 C.ar      1 <0>        -0.0850
     34 C27         6.5079   10.7078    0.6775 C.ar      1 <0>        -0.1492
     35 C28         6.5243    9.4010    1.1353 C.ar      1 <0>         0.1044
     36 F1          5.3687    8.7109    1.2516 F         1 <0>        -0.1359
     37 H2         -0.8529    1.6809   -0.6076 H         1 <0>         0.1308
     38 H3          1.2166    3.0039   -0.4730 H         1 <0>         0.1303
     39 H4          3.3978    1.8748   -0.3455 H         1 <0>         0.1249
     40 H5          1.4159   -1.9268   -0.4956 H         1 <0>         0.1323
     41 H6         -0.7546   -0.7771   -0.6228 H         1 <0>         0.1345
     42 H7          3.2834   -2.8955   -0.3960 H         1 <0>         0.1640
     43 H8          5.9298   -3.3155   -0.2311 H         1 <0>         0.1667
     44 H9          7.1441    2.0934   -1.0911 H         1 <0>         0.1017
     45 H10         6.1054    1.4682    0.2268 H         1 <0>         0.1027
     46 H11         9.9580    0.0770    0.4526 H         1 <0>         0.0924
     47 H12         9.6992    1.1685   -0.9436 H         1 <0>         0.0882
     48 H13        10.0635    3.3946   -0.5187 H         1 <0>         0.1275
     49 H14        10.1404    4.0369    1.1403 H         1 <0>         0.0970
     50 H15        11.8184    1.7392    0.0318 H         1 <0>         0.1340
     51 H16        12.3953    3.3929    0.3471 H         1 <0>         0.1397
     52 H17        12.9154    1.9745    2.1595 H         1 <0>         0.4345
     53 H18        11.2105    0.3167    1.7965 H         1 <0>         0.1348
     54 H19        11.3137    0.8616    3.4876 H         1 <0>         0.1405
     55 H20         9.4682    2.4636    3.0923 H         1 <0>         0.0970
     56 H21         8.9568    0.8051    2.6943 H         1 <0>         0.1185
     57 H22         7.7851    4.8644    2.2371 H         1 <0>         0.4013
     58 H23         8.6684    6.6077    0.1982 H         1 <0>         0.0750
     59 H24         6.8888    6.5767    0.1777 H         1 <0>         0.0757
     60 H25         6.8504    7.1976    2.5781 H         1 <0>         0.0846
     61 H26         8.6300    7.2286    2.5986 H         1 <0>         0.0831
     62 H27         9.8448    9.0425    1.6186 H         1 <0>         0.1305
     63 H28         9.8146   11.3624    0.7959 H         1 <0>         0.1329
     64 H29         7.6788   12.4291    0.1941 H         1 <0>         0.1369
     65 H30         5.5712   11.1761    0.4136 H         1 <0>         0.1394
     66 H31        11.7833    3.0649    2.6486 H         1 <0>         0.4274
@<TRIPOS>BOND
     1    1    6 ar
     2    1    2 ar
     3    1   37 1
     4    2    3 ar
     5    2   38 1
     6    3    4 ar
     7    3   39 1
     8    4    5 ar
     9    4    7 1
    10    5    6 ar
    11    5   40 1
    12    6   41 1
    13    7   11 1
    14    7    8 2
    15    8    9 1
    16    8   42 1
    17    9   10 2
    18    9   43 1
    19   10   11 1
    20   10   12 1
    21   12   13 2
    22   12   14 am
    23   14   19 1
    24   14   15 1
    25   15   16 1
    26   15   44 1
    27   15   45 1
    28   16   17 1
    29   16   18 1
    30   16   25 1
    31   18   24 1
    32   18   19 1
    33   18   20 1
    34   19   46 1
    35   19   47 1
    36   20   21 1
    37   20   48 1
    38   20   49 1
    39   21   22 1
    40   21   50 1
    41   21   51 1
    42   22   23 1
    43   22   52 1
    44   22   66 1
    45   23   24 1
    46   23   53 1
    47   23   54 1
    48   24   55 1
    49   24   56 1
    50   25   26 2
    51   25   27 am
    52   27   28 1
    53   27   57 1
    54   28   29 1
    55   28   58 1
    56   28   59 1
    57   29   30 1
    58   29   60 1
    59   29   61 1
    60   30   35 ar
    61   30   31 ar
    62   31   32 ar
    63   31   62 1
    64   32   33 ar
    65   32   63 1
    66   33   34 ar
    67   33   64 1
    68   34   35 ar
    69   34   65 1
    70   35   36 1
@<TRIPOS>MOLECULE
ZINC39685490
   60    63     0     0     0
SMALL
USER_CHARGES

@<TRIPOS>ATOM
      1 C1         -0.0115    1.5150    0.0209 C.3       1 <0>        -0.1073
      2 C2         -0.0086    0.0080    0.0085 C.2       1 <0>        -0.0173
      3 C3         -0.0198   -0.7132   -1.1612 C.2       1 <0>        -0.1862
      4 C4         -0.0160   -2.0678   -1.1004 C.2       1 <0>        -0.2173
      5 S1          0.0030   -2.4061    0.5450 S.3       1 <0>         0.2024
      6 C5          0.0114   -0.7390    1.1765 C.2       1 <0>        -0.2756
      7 C6          0.0321   -0.2780    2.5678 C.2       1 <0>         0.6435
      8 O1          0.1223    0.9104    2.8138 O.2       1 <0>        -0.5196
      9 N1         -0.0487   -1.1704    3.5746 N.am      1 <0>        -0.6177
     10 C7         -0.0411   -2.6492    3.4803 C.3       1 <0>         0.1115
     11 C8          0.8129   -3.1126    4.6818 C.3       1 <0>        -0.1127
     12 H1          0.4000   -4.0254    5.1113 H         1 <0>         0.1196
     13 C9          0.7258   -1.9577    5.6936 C.3       1 <0>        -0.0726
     14 C10        -0.1589   -0.8941    5.0271 C.3       1 <0>         0.1111
     15 C11         0.0867   -2.4399    6.9923 C.3       1 <0>        -0.1341
     16 C12         0.0643   -1.2894    8.0026 C.3       1 <0>        -0.0102
     17 N2          1.4350   -0.8267    8.2509 N.4       1 <0>        -0.5046
     18 C13         2.0097   -0.2789    7.0162 C.3       1 <0>        -0.0094
     19 C14         2.1146   -1.3867    5.9642 C.3       1 <0>        -0.1464
     20 C15         2.2414   -3.3337    4.2560 C.2       1 <0>         0.5142
     21 O2          2.7391   -2.6217    3.4096 O.2       1 <0>        -0.5127
     22 N3          2.9661   -4.3227    4.8156 N.am      1 <0>        -0.7253
     23 C16         4.3548   -4.5377    4.4017 C.3       1 <0>         0.1201
     24 C17         4.9443   -5.7126    5.1846 C.3       1 <0>         0.0452
     25 O3          4.2547   -6.9136    4.8324 O.3       1 <0>        -0.3099
     26 C18         4.6584   -8.0585    5.4431 C.ar      1 <0>         0.1537
     27 C19         5.6935   -8.0255    6.3668 C.ar      1 <0>        -0.2208
     28 C20         6.1031   -9.1899    6.9869 C.ar      1 <0>        -0.0481
     29 C21         5.4829  -10.3890    6.6885 C.ar      1 <0>        -0.1865
     30 C22         4.4497  -10.4257    5.7673 C.ar      1 <0>         0.1438
     31 C23         4.0327   -9.2604    5.1482 C.ar      1 <0>        -0.1887
     32 F1          3.8453  -11.5985    5.4767 F         1 <0>        -0.1289
     33 H2          1.0153    1.8804    0.0077 H         1 <0>         0.0784
     34 H3         -0.5401    1.8845   -0.8578 H         1 <0>         0.0699
     35 H4         -0.5119    1.8699    0.9219 H         1 <0>         0.0851
     36 H5         -0.0319   -0.2081   -2.1158 H         1 <0>         0.1409
     37 H6         -0.0237   -2.7689   -1.9219 H         1 <0>         0.1901
     38 H7         -1.0552   -3.0404    3.5615 H         1 <0>         0.0967
     39 H8          0.4163   -2.9679    2.5436 H         1 <0>         0.0965
     40 H9          0.2129    0.1052    5.2536 H         1 <0>         0.0914
     41 H10        -1.1922   -1.0005    5.3573 H         1 <0>         0.0871
     42 H11        -0.9329   -2.7709    6.7951 H         1 <0>         0.1230
     43 H12         0.6671   -3.2688    7.3976 H         1 <0>         0.0980
     44 H13        -0.5298   -0.4672    7.6034 H         1 <0>         0.1336
     45 H14        -0.3770   -1.6355    8.9372 H         1 <0>         0.1403
     46 H15         1.4233   -0.1105    8.9615 H         1 <0>         0.4343
     47 H16         1.3694    0.5192    6.6405 H         1 <0>         0.1353
     48 H17         3.0027    0.1200    7.2237 H         1 <0>         0.1384
     49 H18         2.7678   -2.1777    6.3327 H         1 <0>         0.0930
     50 H19         2.5249   -0.9752    5.0421 H         1 <0>         0.1272
     51 H20         2.5681   -4.8922    5.4925 H         1 <0>         0.4038
     52 H21         4.3858   -4.7598    3.3350 H         1 <0>         0.0872
     53 H22         4.9372   -3.6384    4.6026 H         1 <0>         0.0940
     54 H23         6.0020   -5.8165    4.9423 H         1 <0>         0.0870
     55 H24         4.8327   -5.5296    6.2533 H         1 <0>         0.0711
     56 H25         6.1790   -7.0896    6.6006 H         1 <0>         0.1332
     57 H26         6.9089   -9.1637    7.7054 H         1 <0>         0.1389
     58 H27         5.8050  -11.2983    7.1742 H         1 <0>         0.1411
     59 H28         3.2237   -9.2876    4.4332 H         1 <0>         0.1444
     60 H29         1.9980   -1.6018    8.5674 H         1 <0>         0.4271
@<TRIPOS>BOND
     1    1    2 1
     2    1   33 1
     3    1   34 1
     4    1   35 1
     5    2    6 2
     6    2    3 1
     7    3    4 2
     8    3   36 1
     9    4    5 1
    10    4   37 1
    11    5    6 1
    12    6    7 1
    13    7    8 2
    14    7    9 am
    15    9   14 1
    16    9   10 1
    17   10   11 1
    18   10   38 1
    19   10   39 1
    20   11   12 1
    21   11   13 1
    22   11   20 1
    23   13   19 1
    24   13   14 1
    25   13   15 1
    26   14   40 1
    27   14   41 1
    28   15   16 1
    29   15   42 1
    30   15   43 1
    31   16   17 1
    32   16   44 1
    33   16   45 1
    34   17   18 1
    35   17   46 1
    36   17   60 1
    37   18   19 1
    38   18   47 1
    39   18   48 1
    40   19   49 1
    41   19   50 1
    42   20   21 2
    43   20   22 am
    44   22   23 1
    45   22   51 1
    46   23   24 1
    47   23   52 1
    48   23   53 1
    49   24   25 1
    50   24   54 1
    51   24   55 1
    52   25   26 1
    53   26   31 ar
    54   26   27 ar
    55   27   28 ar
    56   27   56 1
    57   28   29 ar
    58   28   57 1
    59   29   30 ar
    60   29   58 1
    61   30   31 ar
    62   30   32 1
    63   31   59 1
@<TRIPOS>MOLECULE
ZINC46730133
   59    61     0     0     0
SMALL
USER_CHARGES

@<TRIPOS>ATOM
      1 C1         -0.0953    1.3905   -0.2571 C.3       1 <0>        -0.1217
      2 C2         -0.1348   -0.1145   -0.1907 C.ar      1 <0>        -0.1111
      3 C3         -0.2543   -0.8518   -1.3509 C.ar      1 <0>        -0.0301
      4 C4         -0.2903   -2.2455   -1.2877 C.ar      1 <0>        -0.1696
      5 C5         -0.2050   -2.8843   -0.0494 C.ar      1 <0>         0.0408
      6 C6         -0.0858   -2.1355    1.1028 C.ar      1 <0>        -0.6838
      7 C7         -0.0454   -0.7540    1.0327 C.ar      1 <0>         0.0564
      8 C8          0.0907    0.0575    2.2952 C.3       1 <0>        -0.1848
      9 S1          0.0214   -2.9398    2.6668 S.o2      1 <0>         2.6968
     10 O1         -0.1166   -4.3320    2.4179 O.2       1 <0>        -0.9483
     11 O2          1.1541   -2.3928    3.3280 O.2       1 <0>        -0.9482
     12 N1         -1.3060   -2.4821    3.5448 N.pl3     1 <0>        -1.1172
     13 C9         -2.6463   -2.8797    3.1072 C.3       1 <0>         0.0815
     14 C10        -0.4186   -3.0418   -2.5267 C.2       1 <0>         0.5705
     15 O3         -0.4497   -4.2555   -2.4686 O.2       1 <0>        -0.5187
     16 N2         -0.5012   -2.4219   -3.7206 N.am      1 <0>        -0.7287
     17 C11        -0.6284   -3.2110   -4.9484 C.3       1 <0>         0.1366
     18 C12         0.7623   -3.6269   -5.4363 C.3       1 <0>        -0.1620
     19 C13         0.6277   -4.3821   -6.7603 C.3       1 <0>        -0.0025
     20 N3         -0.0041   -3.5138   -7.7610 N.4       1 <0>        -0.3838
     21 C14        -1.3653   -3.1693   -7.3332 C.3       1 <0>        -0.0081
     22 C15        -1.3074   -2.3674   -6.0313 C.3       1 <0>        -0.1544
     23 C16        -0.0604   -4.2154   -9.0504 C.3       1 <0>         0.0441
     24 C17        -0.5956   -3.2831  -10.1066 C.ar      1 <0>        -0.1602
     25 C18        -1.9561   -3.2134  -10.3414 C.ar      1 <0>        -0.0841
     26 C19        -2.4475   -2.3586  -11.3100 C.ar      1 <0>        -0.1065
     27 C20        -1.5775   -1.5727  -12.0446 C.ar      1 <0>        -0.0067
     28 C21        -0.2160   -1.6429  -11.8091 C.ar      1 <0>        -0.1058
     29 C22         0.2738   -2.4940  -10.8363 C.ar      1 <0>        -0.0790
     30 Cl1        -2.1940   -0.4992  -13.2617 Cl        1 <0>        -0.0369
     31 H1          0.9374    1.7225   -0.3639 H         1 <0>         0.0795
     32 H2         -0.6771    1.7319   -1.1132 H         1 <0>         0.0720
     33 H3         -0.5175    1.8057    0.6580 H         1 <0>         0.0791
     34 H4         -0.3202   -0.3514   -2.3057 H         1 <0>         0.1315
     35 H5         -0.2326   -3.9625    0.0063 H         1 <0>         0.1586
     36 H6         -0.8923    0.1975    2.7449 H         1 <0>         0.0954
     37 H7          0.7396   -0.4673    2.9963 H         1 <0>         0.1093
     38 H8          0.5232    1.0294    2.0575 H         1 <0>         0.0948
     39 H9         -1.1960   -1.9508    4.3489 H         1 <0>         0.4227
     40 H10        -2.8719   -2.4062    2.1516 H         1 <0>         0.0572
     41 H11        -2.6852   -3.9631    2.9939 H         1 <0>         0.0733
     42 H12        -3.3793   -2.5655    3.8503 H         1 <0>         0.0888
     43 H13        -0.4764   -1.4534   -3.7670 H         1 <0>         0.4052
     44 H14        -1.2272   -4.0999   -4.7500 H         1 <0>         0.1089
     45 H15         1.3766   -2.7388   -5.5846 H         1 <0>         0.0913
     46 H16         1.2300   -4.2739   -4.6941 H         1 <0>         0.1199
     47 H17         1.6161   -4.6798   -7.1104 H         1 <0>         0.1366
     48 H18         0.0135   -5.2700   -6.6107 H         1 <0>         0.1345
     49 H19        -1.8483   -2.5717   -8.1063 H         1 <0>         0.1368
     50 H20        -1.9370   -4.0831   -7.1715 H         1 <0>         0.1345
     51 H21        -2.3191   -2.1142   -5.7144 H         1 <0>         0.1202
     52 H22        -0.7360   -1.4532   -6.1920 H         1 <0>         0.0941
     53 H23         0.9408   -4.5439   -9.3292 H         1 <0>         0.1411
     54 H24        -0.7163   -5.0817   -8.9643 H         1 <0>         0.1396
     55 H25        -2.6351   -3.8272   -9.7682 H         1 <0>         0.1416
     56 H26        -3.5104   -2.3044  -11.4936 H         1 <0>         0.1475
     57 H27         0.4636   -1.0299  -12.3824 H         1 <0>         0.1474
     58 H28         1.3362   -2.5454  -10.6491 H         1 <0>         0.1417
     59 H29         0.5390   -2.6695   -7.8632 H         1 <0>         0.4224
@<TRIPOS>BOND
     1    1    2 1
     2    1   31 1
     3    1   32 1
     4    1   33 1
     5    2    7 ar
     6    2    3 ar
     7    3    4 ar
     8    3   34 1
     9    4    5 ar
    10    4   14 1
    11    5    6 ar
    12    5   35 1
    13    6    7 ar
    14    6    9 1
    15    7    8 1
    16    8   36 1
    17    8   37 1
    18    8   38 1
    19    9   10 2
    20    9   11 2
    21    9   12 1
    22   12   13 1
    23   12   39 1
    24   13   40 1
    25   13   41 1
    26   13   42 1
    27   14   15 2
    28   14   16 am
    29   16   17 1
    30   16   43 1
    31   17   22 1
    32   17   18 1
    33   17   44 1
    34   18   19 1
    35   18   45 1
    36   18   46 1
    37   19   20 1
    38   19   47 1
    39   19   48 1
    40   20   21 1
    41   20   23 1
    42   20   59 1
    43   21   22 1
    44   21   49 1
    45   21   50 1
    46   22   51 1
    47   22   52 1
    48   23   24 1
    49   23   53 1
    50   23   54 1
    51   24   29 ar
    52   24   25 ar
    53   25   26 ar
    54   25   55 1
    55   26   27 ar
    56   26   56 1
    57   27   28 ar
    58   27   30 1
    59   28   29 ar
    60   28   57 1
    61   29   58 1
@<TRIPOS>MOLECULE
ZINC05884271
   56    61     0     0     0
SMALL
USER_CHARGES
trihydroxy-methyl-(trihydroxy-methyl-oxo-BLAHyl)-BLAHone
@<TRIPOS>ATOM
      1 C1         -0.0184    1.5028    0.0103 C.3       1 <0>        -0.1156
      2 C2          0.0021   -0.0041    0.0020 C.2       1 <0>         0.1646
      3 C3         -1.1692   -0.6614    0.0151 C.2       1 <0>        -0.3320
      4 C4         -1.1795   -2.0833    0.0021 C.2       1 <0>         0.4245
      5 O1         -2.2253   -2.7104    0.0091 O.2       1 <0>        -0.4523
      6 C5          0.1250   -2.7678   -0.0139 C.ar      1 <0>        -0.2615
      7 C6          1.2962   -1.9744   -0.0208 C.ar      1 <0>         0.1710
      8 O2          1.1861   -0.6268   -0.0126 O.3       1 <0>        -0.2235
      9 C7          2.5352   -2.5739   -0.0352 C.ar      1 <0>        -0.1462
     10 C8          2.6398   -3.9723   -0.0432 C.ar      1 <0>         0.0630
     11 C9          1.4699   -4.7727   -0.0364 C.ar      1 <0>        -0.1442
     12 C10         0.2062   -4.1573   -0.0216 C.ar      1 <0>         0.2462
     13 O3         -0.9211   -4.9089   -0.0146 O.3       1 <0>        -0.4542
     14 C11         1.5863   -6.1794   -0.0440 C.ar      1 <0>         0.1800
     15 C12         2.8313   -6.7667   -0.0578 C.ar      1 <0>        -0.1863
     16 C13         3.9877   -5.9893   -0.0646 C.ar      1 <0>         0.1727
     17 C14         3.9088   -4.6006   -0.0575 C.ar      1 <0>        -0.0824
     18 C15         5.1418   -3.7858   -0.0652 C.ar      1 <0>        -0.0851
     19 C16         5.7281   -3.3927   -1.2928 C.ar      1 <0>         0.0639
     20 C17         5.1436   -3.7608   -2.5131 C.ar      1 <0>        -0.1466
     21 C18         5.7196   -3.3692   -3.7003 C.ar      1 <0>         0.1706
     22 C19         6.8999   -2.5894   -3.6924 C.ar      1 <0>        -0.2626
     23 C20         7.4811   -2.1939   -4.9871 C.2       1 <0>         0.4242
     24 O4          8.4967   -1.5217   -5.0480 O.2       1 <0>        -0.4519
     25 C21         6.8089   -2.6272   -6.1628 C.2       1 <0>        -0.3310
     26 C22         5.6923   -3.3664   -6.0575 C.2       1 <0>         0.1634
     27 O5          5.1654   -3.7249   -4.8811 O.3       1 <0>        -0.2244
     28 C23         5.0020   -3.8115   -7.3209 C.3       1 <0>        -0.1149
     29 C24         7.4933   -2.2084   -2.4923 C.ar      1 <0>         0.2475
     30 C25         6.9078   -2.6067   -1.2780 C.ar      1 <0>        -0.1452
     31 C26         7.4848   -2.2376   -0.0438 C.ar      1 <0>         0.1801
     32 C27         6.8989   -2.6365    1.1365 C.ar      1 <0>        -0.1853
     33 C28         5.7366   -3.4051    1.1332 C.ar      1 <0>         0.1743
     34 O6          5.1788   -3.7859    2.3115 O.3       1 <0>        -0.4836
     35 O7          8.6170   -1.4890   -0.0207 O.3       1 <0>        -0.4740
     36 O8          8.6235   -1.4610   -2.4945 O.3       1 <0>        -0.4545
     37 O9          5.2040   -6.5935   -0.0787 O.3       1 <0>        -0.4852
     38 O10         0.4707   -6.9529   -0.0371 O.3       1 <0>        -0.4747
     39 H1          1.0042    1.8801    0.0026 H         1 <0>         0.0880
     40 H2         -0.5455    1.8639   -0.8728 H         1 <0>         0.1020
     41 H3         -0.5286    1.8543    0.9071 H         1 <0>         0.1023
     42 H4         -2.0991   -0.1124    0.0315 H         1 <0>         0.1608
     43 H5          3.4281   -1.9663   -0.0405 H         1 <0>         0.1469
     44 H6         -1.2568   -5.1226   -0.8959 H         1 <0>         0.3994
     45 H7          2.9128   -7.8436   -0.0636 H         1 <0>         0.1465
     46 H8          4.2427   -4.3564   -2.5215 H         1 <0>         0.1461
     47 H9          7.1948   -2.3636   -7.1365 H         1 <0>         0.1606
     48 H10         4.1189   -4.3973   -7.0654 H         1 <0>         0.0874
     49 H11         4.7032   -2.9372   -7.8991 H         1 <0>         0.1019
     50 H12         5.6844   -4.4222   -7.9121 H         1 <0>         0.1021
     51 H13         7.3460   -2.3503    2.0770 H         1 <0>         0.1470
     52 H14         5.5043   -4.6332    2.6451 H         1 <0>         0.3949
     53 H15         9.4324   -2.0089   -0.0211 H         1 <0>         0.3953
     54 H16         9.4388   -1.9808   -2.5019 H         1 <0>         0.3997
     55 H17         5.5645   -6.7726    0.8006 H         1 <0>         0.3947
     56 H18         0.1393   -7.1729   -0.9185 H         1 <0>         0.3956
@<TRIPOS>BOND
     1    1    2 1
     2    1   39 1
     3    1   40 1
     4    1   41 1
     5    2    8 1
     6    2    3 2
     7    3    4 1
     8    3   42 1
     9    4    5 2
    10    4    6 1
    11    6   12 ar
    12    6    7 ar
    13    7    8 1
    14    7    9 ar
    15    9   10 ar
    16    9   43 1
    17   10   17 ar
    18   10   11 ar
    19   11   12 ar
    20   11   14 ar
    21   12   13 1
    22   13   44 1
    23   14   15 ar
    24   14   38 1
    25   15   16 ar
    26   15   45 1
    27   16   17 ar
    28   16   37 1
    29   17   18 1
    30   18   33 ar
    31   18   19 ar
    32   19   30 ar
    33   19   20 ar
    34   20   21 ar
    35   20   46 1
    36   21   27 1
    37   21   22 ar
    38   22   23 1
    39   22   29 ar
    40   23   24 2
    41   23   25 1
    42   25   26 2
    43   25   47 1
    44   26   27 1
    45   26   28 1
    46   28   48 1
    47   28   49 1
    48   28   50 1
    49   29   30 ar
    50   29   36 1
    51   30   31 ar
    52   31   32 ar
    53   31   35 1
    54   32   33 ar
    55   32   51 1
    56   33   34 1
    57   34   52 1
    58   35   53 1
    59   36   54 1
    60   37   55 1
    61   38   56 1
@<TRIPOS>MOLECULE
ZINC12446858
   72    77     0     0     0
SMALL
USER_CHARGES
amino-(amino-dihydroxy-isopropyl-methyl-BLAHyl)-isopropyl-methyl-BLAHdiol
@<TRIPOS>ATOM
      1 C1         -5.7036    3.3380    1.3208 C.3       1 <0>        -0.1284
      2 C2         -4.3430    3.9858    1.3134 C.ar      1 <0>        -0.0331
      3 C3         -3.2396    3.1847    1.2978 C.ar      1 <0>        -0.0929
      4 C4         -1.9675    3.7845    1.2905 C.ar      1 <0>        -0.0060
      5 C5         -1.9096    5.1843    1.2987 C.ar      1 <0>        -0.1128
      6 C6         -0.7177    5.9065    1.2916 C.ar      1 <0>        -0.2410
      7 C7          0.4463    5.2074    1.2763 C.ar      1 <0>         0.1972
      8 C8          0.4203    3.7995    1.2735 C.ar      1 <0>         0.0871
      9 C9         -0.7493    3.0861    1.2751 C.ar      1 <0>        -0.0163
     10 C10        -0.7288    1.5792    1.2668 C.3       1 <0>        -0.0605
     11 C11        -0.0127    1.0858    0.0080 C.3       1 <0>        -0.1519
     12 C12         0.0111    1.0724    2.5063 C.3       1 <0>        -0.1538
     13 O1          1.5994    3.1231    1.2642 O.3       1 <0>        -0.4721
     14 O2          1.6357    5.8661    1.2686 O.3       1 <0>        -0.4938
     15 C13        -1.1648    7.3443    1.3049 C.3       1 <0>         0.2806
     16 H1         -0.7925    7.8456    2.1984 H         1 <0>         0.1906
     17 O3         -2.6054    7.3080    1.3191 O.3       1 <0>        -0.2668
     18 C14        -3.0239    6.0187    1.3144 C.ar      1 <0>         0.0960
     19 C15        -4.2669    5.3898    1.3217 C.ar      1 <0>        -0.0163
     20 C16        -5.5079    6.1998    1.3377 C.ar      1 <0>        -0.0156
     21 C17        -6.0895    6.5721    2.5625 C.ar      1 <0>        -0.0330
     22 C18        -7.2267    7.3202    2.6450 C.ar      1 <0>        -0.0927
     23 C19        -7.8547    7.7307    1.4555 C.ar      1 <0>        -0.0062
     24 C20        -7.2650    7.3467    0.2439 C.ar      1 <0>        -0.1124
     25 C21        -6.1024    6.5882    0.1392 C.ar      1 <0>         0.0955
     26 O4         -5.8174    6.4026   -1.1729 O.3       1 <0>        -0.2670
     27 C22        -6.8186    7.0557   -1.9779 C.3       1 <0>         0.2809
     28 H2         -7.3355    6.3254   -2.6005 H         1 <0>         0.1904
     29 C23        -7.7817    7.6839   -1.0057 C.ar      1 <0>        -0.2412
     30 C24        -8.9190    8.4250   -1.0418 C.ar      1 <0>         0.1964
     31 C25        -9.5346    8.8262    0.1594 C.ar      1 <0>         0.0862
     32 C26        -9.0297    8.4969    1.3896 C.ar      1 <0>        -0.0149
     33 C27        -9.7224    8.9491    2.6493 C.3       1 <0>        -0.0608
     34 C28        -9.7791   10.4777    2.6795 C.3       1 <0>        -0.1521
     35 C29       -11.1444    8.3853    2.6798 C.3       1 <0>        -0.1537
     36 O5        -10.6719    9.5681    0.0959 O.3       1 <0>        -0.4700
     37 O6         -9.4625    8.7796   -2.2366 O.3       1 <0>        -0.4891
     38 C30        -5.4237    6.1299    3.8401 C.3       1 <0>        -0.1288
     39 H3         -6.0404    3.1883    0.2950 H         1 <0>         0.0821
     40 H4         -5.6447    2.3750    1.8280 H         1 <0>         0.0860
     41 H5         -6.4098    3.9820    1.8447 H         1 <0>         0.0750
     42 H6         -3.3406    2.1095    1.2918 H         1 <0>         0.1538
     43 H7         -1.7514    1.2020    1.2746 H         1 <0>         0.0897
     44 H8          0.0021   -0.0041    0.0020 H         1 <0>         0.0769
     45 H9          1.0099    1.4631    0.0003 H         1 <0>         0.0621
     46 H10        -0.5399    1.4469   -0.8751 H         1 <0>         0.0565
     47 H11        -0.4990    1.4239    3.4031 H         1 <0>         0.0559
     48 H12         0.0259   -0.0175    2.5003 H         1 <0>         0.0708
     49 H13         1.0337    1.4497    2.4986 H         1 <0>         0.0792
     50 H14         1.9364    2.9323    0.3781 H         1 <0>         0.4005
     51 H15         1.9883    6.0515    2.1497 H         1 <0>         0.4182
     52 H16        -7.6399    7.5886    3.6060 H         1 <0>         0.1539
     53 H17        -9.1700    8.5887    3.5171 H         1 <0>         0.0899
     54 H18        -8.7660   10.8794    2.6577 H         1 <0>         0.0532
     55 H19       -10.3315   10.8381    1.8117 H         1 <0>         0.0791
     56 H20       -10.2801   10.8048    3.5906 H         1 <0>         0.0707
     57 H21       -11.1041    7.2963    2.6583 H         1 <0>         0.0594
     58 H22       -11.6454    8.7124    3.5909 H         1 <0>         0.0772
     59 H23       -11.6969    8.7457    1.8120 H         1 <0>         0.0621
     60 H24       -11.4836    9.0429    0.0773 H         1 <0>         0.3985
     61 H25       -10.1020    8.1421   -2.5825 H         1 <0>         0.4129
     62 H26        -5.5246    7.6861   -3.4499 H         1 <0>         0.4429
     63 H27        -6.8984    8.6144   -3.3204 H         1 <0>         0.4569
     64 H28        -4.7015    6.8838    4.1533 H         1 <0>         0.0824
     65 H29        -6.1772    6.0035    4.6175 H         1 <0>         0.0861
     66 H30        -4.9110    5.1826    3.6736 H         1 <0>         0.0751
     67 H31        -1.0094    8.9906    0.0785 H         1 <0>         0.4433
     68 H32         0.3186    7.9906    0.0320 H         1 <0>         0.4566
     69 N1         -6.1876    8.1039   -2.7991 N.4       1 <0>        -0.6484
     70 H33        -5.6877    8.7581   -2.1855 H         1 <0>         0.4365
     71 N2         -0.6984    8.0206    0.0816 N.4       1 <0>        -0.6480
     72 H34        -1.0881    7.5412   -0.7385 H         1 <0>         0.4358
@<TRIPOS>BOND
     1    1    2 1
     2    1   39 1
     3    1   40 1
     4    1   41 1
     5    2   19 ar
     6    2    3 ar
     7    3    4 ar
     8    3   42 1
     9    4    9 ar
    10    4    5 ar
    11    5   18 ar
    12    5    6 ar
    13    6    7 ar
    14    6   15 1
    15    7    8 ar
    16    7   14 1
    17    8    9 ar
    18    8   13 1
    19    9   10 1
    20   10   11 1
    21   10   12 1
    22   10   43 1
    23   11   44 1
    24   11   45 1
    25   11   46 1
    26   12   47 1
    27   12   48 1
    28   12   49 1
    29   13   50 1
    30   14   51 1
    31   15   16 1
    32   15   17 1
    33   15   71 1
    34   17   18 1
    35   18   19 ar
    36   19   20 1
    37   20   25 ar
    38   20   21 ar
    39   21   22 ar
    40   21   38 1
    41   22   23 ar
    42   22   52 1
    43   23   32 ar
    44   23   24 ar
    45   24   29 ar
    46   24   25 ar
    47   25   26 1
    48   26   27 1
    49   27   28 1
    50   27   29 1
    51   27   69 1
    52   29   30 ar
    53   30   31 ar
    54   30   37 1
    55   31   32 ar
    56   31   36 1
    57   32   33 1
    58   33   34 1
    59   33   35 1
    60   33   53 1
    61   34   54 1
    62   34   55 1
    63   34   56 1
    64   35   57 1
    65   35   58 1
    66   35   59 1
    67   36   60 1
    68   37   61 1
    69   38   64 1
    70   38   65 1
    71   38   66 1
    72   62   69 1
    73   63   69 1
    74   67   71 1
    75   68   71 1
    76   69   70 1
    77   71   72 1
@<TRIPOS>MOLECULE
ZINC35351870
   61    64     0     0     0
SMALL
USER_CHARGES

@<TRIPOS>ATOM
      1 C1         -0.1048    1.6203   -0.1150 C.3       1 <0>        -0.1398
      2 C2         -0.0454    0.0921   -0.1094 C.3       1 <0>        -0.0288
      3 C3          0.6107   -0.4228   -1.3853 C.3       1 <0>        -0.1066
      4 C4          2.0685    0.0431   -1.4512 C.3       1 <0>        -0.0643
      5 C5          2.7854   -0.3877   -0.1964 C.2       1 <0>         0.1517
      6 N1          4.0714   -0.5745   -0.2151 N.2       1 <0>        -0.2645
      7 N2          4.7382   -0.9747    0.9502 N.am      1 <0>        -0.5883
      8 C6          6.0718   -1.1685    0.9308 C.2       1 <0>         0.7331
      9 O1          6.6505   -1.5158    1.9422 O.2       1 <0>        -0.5886
     10 N3          6.7640   -0.9772   -0.2097 N.am      1 <0>        -0.8500
     11 C7          2.0320   -0.5945    1.0438 C.2       1 <0>        -0.1962
     12 C8          0.7265   -0.3810    1.0992 C.2       1 <0>        -0.0277
     13 C9         -0.0323   -0.6146    2.3848 C.3       1 <0>        -0.0943
     14 C10        -1.0632   -1.7219    2.1598 C.3       1 <0>        -0.1084
     15 C11        -1.4053   -1.8349    0.6807 C.3       1 <0>        -0.0666
     16 H1         -0.5529   -2.3695    0.2083 H         1 <0>         0.0668
     17 C12        -1.4745   -0.4667    0.0146 C.3       1 <0>        -0.0686
     18 H2         -2.0124    0.2332    0.6626 H         1 <0>         0.0829
     19 C13        -2.1397   -0.5189   -1.3501 C.3       1 <0>        -0.1127
     20 C14        -3.5429   -1.1288   -1.3303 C.3       1 <0>        -0.1032
     21 C15        -3.8404   -1.7853   -0.0058 C.3       1 <0>         0.0104
     22 C16        -2.6360   -2.6507    0.4220 C.3       1 <0>        -0.0715
     23 H3         -2.4160   -3.3795   -0.3874 H         1 <0>         0.0759
     24 C17        -3.2219   -3.4300    1.6094 C.3       1 <0>        -0.1118
     25 C18        -4.6612   -3.7543    1.1209 C.3       1 <0>        -0.1306
     26 C19        -4.9405   -2.8325   -0.0594 C.2       1 <0>         0.1128
     27 N4         -5.8819   -2.9086   -0.9133 N.2       1 <0>        -0.2457
     28 N5         -6.8248   -3.9411   -0.8261 N.am      1 <0>        -0.5923
     29 C20        -7.8213   -4.0217   -1.7300 C.2       1 <0>         0.7342
     30 O2         -8.6397   -4.9179   -1.6544 O.2       1 <0>        -0.5875
     31 N6         -7.9108   -3.1090   -2.7176 N.am      1 <0>        -0.8498
     32 C21        -4.2482   -0.7622    1.0507 C.3       1 <0>        -0.1452
     33 H4          0.9074    2.0231   -0.1514 H         1 <0>         0.0598
     34 H5         -0.6623    1.9591   -0.9882 H         1 <0>         0.0661
     35 H6         -0.6017    1.9679    0.7908 H         1 <0>         0.0597
     36 H7          0.5780   -1.5145   -1.3986 H         1 <0>         0.0724
     37 H8          0.0737   -0.0394   -2.2557 H         1 <0>         0.0856
     38 H9          2.5511   -0.4228   -2.3160 H         1 <0>         0.0887
     39 H10         2.1214    1.1232   -1.5601 H         1 <0>         0.0941
     40 H11         4.2400   -1.1124    1.7710 H         1 <0>         0.4009
     41 H12         6.3023   -0.7001   -1.0166 H         1 <0>         0.4082
     42 H13         7.7238   -1.1166   -0.2237 H         1 <0>         0.4145
     43 H14         2.5521   -0.9321    1.9287 H         1 <0>         0.1151
     44 H15         0.6627   -0.9241    3.1648 H         1 <0>         0.0729
     45 H16        -0.5388    0.2995    2.6865 H         1 <0>         0.0822
     46 H17        -0.6490   -2.6678    2.5059 H         1 <0>         0.0681
     47 H18        -1.9589   -1.4862    2.7285 H         1 <0>         0.0725
     48 H19        -2.2001    0.4943   -1.7661 H         1 <0>         0.0674
     49 H20        -1.5137   -1.1110   -2.0328 H         1 <0>         0.0663
     50 H21        -4.2856   -0.3443   -1.5284 H         1 <0>         0.0680
     51 H22        -3.6247   -1.8727   -2.1350 H         1 <0>         0.0668
     52 H23        -2.6602   -4.3520    1.7741 H         1 <0>         0.0734
     53 H24        -3.2425   -2.8339    2.5160 H         1 <0>         0.0826
     54 H25        -4.7178   -4.7952    0.8048 H         1 <0>         0.0785
     55 H26        -5.3756   -3.5655    1.9213 H         1 <0>         0.0882
     56 H27        -6.7605   -4.5980   -0.1153 H         1 <0>         0.4012
     57 H28        -7.2579   -2.3941   -2.7779 H         1 <0>         0.4080
     58 H29        -8.6280   -3.1670   -3.3681 H         1 <0>         0.4148
     59 H30        -5.0646   -0.1499    0.6676 H         1 <0>         0.0614
     60 H31        -4.5752   -1.2810    1.9518 H         1 <0>         0.0602
     61 H32        -3.3962   -0.1249    1.2873 H         1 <0>         0.0776
@<TRIPOS>BOND
     1    1    2 1
     2    1   33 1
     3    1   34 1
     4    1   35 1
     5    2   12 1
     6    2   17 1
     7    2    3 1
     8    3    4 1
     9    3   36 1
    10    3   37 1
    11    4    5 1
    12    4   38 1
    13    4   39 1
    14    5    6 2
    15    5   11 1
    16    6    7 1
    17    7    8 am
    18    7   40 1
    19    8    9 2
    20    8   10 am
    21   10   41 1
    22   10   42 1
    23   11   12 2
    24   11   43 1
    25   12   13 1
    26   13   14 1
    27   13   44 1
    28   13   45 1
    29   14   15 1
    30   14   46 1
    31   14   47 1
    32   15   16 1
    33   15   22 1
    34   15   17 1
    35   17   18 1
    36   17   19 1
    37   19   20 1
    38   19   48 1
    39   19   49 1
    40   20   21 1
    41   20   50 1
    42   20   51 1
    43   21   26 1
    44   21   22 1
    45   21   32 1
    46   22   23 1
    47   22   24 1
    48   24   25 1
    49   24   52 1
    50   24   53 1
    51   25   26 1
    52   25   54 1
    53   25   55 1
    54   26   27 2
    55   27   28 1
    56   28   29 am
    57   28   56 1
    58   29   30 2
    59   29   31 am
    60   31   57 1
    61   31   58 1
    62   32   59 1
    63   32   60 1
    64   32   61 1
@<TRIPOS>MOLECULE
ZINC40760756
   54    56     0     0     0
SMALL
USER_CHARGES

@<TRIPOS>ATOM
      1 C1          0.0043    1.0242    0.1965 C.3       1 <0>        -0.1770
      2 C2          0.2778   -0.4797    0.3027 C.3       1 <0>         0.0636
      3 C3          0.8573   -0.9926   -1.0115 C.3       1 <0>        -0.1424
      4 C4          2.3137   -0.5517   -1.1593 C.3       1 <0>         0.1588
      5 C5          3.1069   -1.1260    0.0147 C.3       1 <0>        -0.1420
      6 C6          2.5443   -0.6146    1.3369 C.3       1 <0>         0.0594
      7 N1          1.1070   -0.7854    1.4551 N.4       1 <0>        -0.4905
      8 C7          2.9501    0.8487    1.5414 C.3       1 <0>        -0.1715
      9 C8          3.2097   -1.4318    2.4686 C.3       1 <0>        -0.1791
     10 N2          2.8554   -1.0838   -2.4159 N.pl3     1 <0>        -0.7175
     11 C9          3.9200   -0.4444   -3.0396 C.ar      1 <0>         0.3962
     12 C10         4.4399   -0.9379   -4.2380 C.ar      1 <0>         0.0128
     13 C11         5.5093   -0.2574   -4.8221 C.ar      1 <0>         0.3948
     14 N3          5.9895    0.8280   -4.2192 N.ar      1 <0>        -0.5508
     15 C12         5.4696    1.2605   -3.0886 C.ar      1 <0>         0.3254
     16 N4          4.4562    0.6508   -2.5070 N.ar      1 <0>        -0.5706
     17 N5          6.0649   -0.7065   -6.0151 N.pl3     1 <0>        -0.6544
     18 C13         7.2099   -0.0904   -6.5285 C.ar      1 <0>         0.1759
     19 C14         7.3662    0.0542   -7.9012 C.ar      1 <0>        -0.1457
     20 C15         8.4984    0.6633   -8.4054 C.ar      1 <0>        -0.0673
     21 C16         9.4765    1.1292   -7.5449 C.ar      1 <0>        -0.1080
     22 C17         9.3238    0.9862   -6.1771 C.ar      1 <0>        -0.0693
     23 C18         8.1909    0.3835   -5.6667 C.ar      1 <0>        -0.1081
     24 Br1        11.0254    1.9626   -8.2394 Br        1 <0>        -0.0464
     25 N6          3.9018   -2.0874   -4.8386 N.pl3     1 <0>        -0.8746
     26 C19        -1.0879   -1.1753    0.5079 C.3       1 <0>        -0.1801
     27 H1          0.9487    1.5591    0.0956 H         1 <0>         0.0845
     28 H2         -0.6189    1.2194   -0.6763 H         1 <0>         0.1042
     29 H3         -0.5116    1.3641    1.0946 H         1 <0>         0.0842
     30 H4          0.8055   -2.0837   -1.0319 H         1 <0>         0.0919
     31 H5          0.2733   -0.5976   -1.8463 H         1 <0>         0.1140
     32 H6          2.3845    0.5321   -1.1736 H         1 <0>         0.1099
     33 H7          3.0496   -2.2168   -0.0086 H         1 <0>         0.0856
     34 H8          4.1541   -0.8273   -0.0757 H         1 <0>         0.1143
     35 H9          0.7803   -0.2199    2.2448 H         1 <0>         0.4265
     36 H10         2.5560    1.4526    0.7240 H         1 <0>         0.0842
     37 H11         2.5457    1.2091    2.4872 H         1 <0>         0.0797
     38 H12         4.0373    0.9253    1.5583 H         1 <0>         0.1058
     39 H13         4.2898   -1.2897    2.4326 H         1 <0>         0.1063
     40 H14         2.8305   -1.0930    3.4327 H         1 <0>         0.0828
     41 H15         2.9778   -2.4889    2.3381 H         1 <0>         0.0800
     42 H16         2.4702   -1.8817   -2.8107 H         1 <0>         0.4064
     43 H17         5.8840    2.1442   -2.6263 H         1 <0>         0.1986
     44 H18         5.6580   -1.4473   -6.4910 H         1 <0>         0.4156
     45 H19         6.6032   -0.3096   -8.5734 H         1 <0>         0.1319
     46 H20         8.6206    0.7757   -9.4726 H         1 <0>         0.1372
     47 H21        10.0891    1.3505   -5.5078 H         1 <0>         0.1359
     48 H22         8.0699    0.2767   -4.5989 H         1 <0>         0.1396
     49 H23         3.1586   -2.5502   -4.4209 H         1 <0>         0.3948
     50 H24         4.2732   -2.4187   -5.6711 H         1 <0>         0.3983
     51 H25        -1.7360   -0.9612   -0.3419 H         1 <0>         0.1066
     52 H26        -0.9387   -2.2520    0.5888 H         1 <0>         0.0813
     53 H27        -1.5517   -0.8031    1.4214 H         1 <0>         0.0848
     54 H28         0.9217   -1.7540    1.7348 H         1 <0>         0.4232
@<TRIPOS>BOND
     1    1    2 1
     2    1   27 1
     3    1   28 1
     4    1   29 1
     5    2    7 1
     6    2    3 1
     7    2   26 1
     8    3    4 1
     9    3   30 1
    10    3   31 1
    11    4    5 1
    12    4   10 1
    13    4   32 1
    14    5    6 1
    15    5   33 1
    16    5   34 1
    17    6    7 1
    18    6    8 1
    19    6    9 1
    20    7   35 1
    21    7   54 1
    22    8   36 1
    23    8   37 1
    24    8   38 1
    25    9   39 1
    26    9   40 1
    27    9   41 1
    28   10   11 1
    29   10   42 1
    30   11   16 ar
    31   11   12 ar
    32   12   13 ar
    33   12   25 1
    34   13   14 ar
    35   13   17 1
    36   14   15 ar
    37   15   16 ar
    38   15   43 1
    39   17   18 1
    40   17   44 1
    41   18   23 ar
    42   18   19 ar
    43   19   20 ar
    44   19   45 1
    45   20   21 ar
    46   20   46 1
    47   21   22 ar
    48   21   24 1
    49   22   23 ar
    50   22   47 1
    51   23   48 1
    52   25   49 1
    53   25   50 1
    54   26   51 1
    55   26   52 1
    56   26   53 1
@<TRIPOS>MOLECULE
ZINC13122852
   41    44     0     0     0
SMALL
NO_CHARGES

@<TRIPOS>ATOM
      1 C1          0.3883    0.2690   -0.5049 C.ar      1 <0>        -0.0801
      2 C2          0.7461   -1.0261   -0.1807 C.ar      1 <0>        -0.1464
      3 C3          2.0834   -1.3720   -0.0873 C.ar      1 <0>         0.1075
      4 C4          3.0617   -0.4200   -0.3187 C.ar      1 <0>        -0.0977
      5 C5          2.7019    0.8754   -0.6429 C.ar      1 <0>         0.0048
      6 C6          1.3648    1.2194   -0.7358 C.ar      1 <0>        -0.1191
      7 Cl1         3.9277    2.0699   -0.9333 Cl        1 <0>        -0.0450
      8 C7          4.5178   -0.7950   -0.2169 C.3       1 <0>         0.0090
      9 H1          5.1259    0.1094   -0.1959 H         1 <0>         0.1392
     10 C8          4.9112   -1.6467   -1.4239 C.3       1 <0>        -0.1383
     11 C9          4.3263   -3.0280   -1.2895 C.2       1 <0>         0.5208
     12 O1          3.9528   -3.6236   -2.2836 O.2       1 <0>        -0.5100
     13 N1          4.2149   -3.5990   -0.1065 N.am      1 <0>        -0.5898
     14 C10         4.5544   -2.9579    1.0129 C.2       1 <0>         0.1343
     15 C11         4.7480   -1.5886    1.0523 C.2       1 <0>        -0.1260
     16 C12         5.1481   -0.9002    2.2077 C.ar      1 <0>         0.1909
     17 C13         5.3731   -1.4756    3.5243 C.ar      1 <0>        -0.1409
     18 C14         5.7818   -0.6251    4.5876 C.ar      1 <0>         0.3083
     19 C15         5.9476    0.7405    4.3248 C.ar      1 <0>        -0.1858
     20 C16         5.7046    1.2248    3.0229 C.ar      1 <0>         0.4420
     21 N2          5.3290    0.4323    2.0476 N.ar      1 <0>        -0.5300
     22 N3          5.8659    2.5713    2.7677 N.pl3     1 <0>        -0.8332
     23 C17         6.3594    1.6341    5.3652 C.1       1 <0>         0.2636
     24 N4          6.6861    2.3430    6.1906 N.1       1 <0>        -0.4284
     25 N5          6.0091   -1.1324    5.8477 N.pl3     1 <0>        -0.8668
     26 C18         5.2110   -2.8439    3.8267 C.2       1 <0>         0.0070
     27 N6          5.4206   -3.3388    5.0830 N.pl3     1 <0>        -0.8046
     28 S1          4.7449   -3.8279    2.5470 S.3       1 <0>         0.1321
     29 F1          2.4336   -2.6377    0.2300 F         1 <0>        -0.1244
     30 H2         -0.6550    0.5374   -0.5821 H         1 <0>         0.1428
     31 H3         -0.0175   -1.7682    0.0000 H         1 <0>         0.1408
     32 H4          1.0841    2.2311   -0.9890 H         1 <0>         0.1415
     33 H5          4.5337   -1.1808   -2.3342 H         1 <0>         0.1154
     34 H6          5.9975   -1.7173   -1.4786 H         1 <0>         0.1174
     35 H7          3.8779   -4.5067   -0.0487 H         1 <0>         0.4176
     36 H8          6.1428    3.1699    3.4790 H         1 <0>         0.4055
     37 H9          6.4825   -1.9723    5.9543 H         1 <0>         0.4116
     38 H10         5.6958   -0.6498    6.6286 H         1 <0>         0.4013
     39 H11         5.1063   -2.8460    5.8571 H         1 <0>         0.4032
     40 H12         5.8836   -4.1830    5.2007 H         1 <0>         0.4016
     41 H13         5.7024    2.9192    1.8771 H         1 <0>         0.4079
@<TRIPOS>BOND
     1    1    6 ar
     2    1    2 ar
     3    1   30 1
     4    2    3 ar
     5    2   31 1
     6    3    4 ar
     7    3   29 1
     8    4    5 ar
     9    4    8 1
    10    5    6 ar
    11    5    7 1
    12    6   32 1
    13    8    9 1
    14    8   15 1
    15    8   10 1
    16   10   11 1
    17   10   33 1
    18   10   34 1
    19   11   12 2
    20   11   13 am
    21   13   14 2
    22   13   35 1
    23   14   28 1
    24   14   15 1
    25   15   16 2
    26   16   21 ar
    27   16   17 ar
    28   17   18 ar
    29   17   26 2
    30   18   19 ar
    31   18   25 1
    32   19   20 ar
    33   19   23 1
    34   20   21 ar
    35   20   22 1
    36   22   36 1
    37   22   41 1
    38   23   24 3
    39   25   37 1
    40   25   38 1
    41   26   27 1
    42   26   28 1
    43   27   39 1
    44   27   40 1
@<TRIPOS>MOLECULE
ZINC08552019
   57    61     0     0     0
SMALL
USER_CHARGES
3,5,7-trihydroxy-2-[8-(4-hydroxy-3-methoxy-phenyl)-9-(hydroxymethyl)-7,10-dioxabicyclo[4.4.0]deca-2,4,11-trien-4-yl]-chroman-4-one
@<TRIPOS>ATOM
      1 C1         13.8490    5.6747   -2.5720 C.3       1 <0>         0.0221
      2 O1         13.2971    6.3031   -3.7307 O.3       1 <0>        -0.3040
      3 C2         11.9599    6.5505   -3.7211 C.ar      1 <0>         0.1074
      4 C3         11.1971    6.2015   -2.6182 C.ar      1 <0>        -0.1757
      5 C4          9.8370    6.4490   -2.6121 C.ar      1 <0>        -0.0621
      6 C5          9.2366    7.0541   -3.7005 C.ar      1 <0>        -0.1155
      7 C6          9.9928    7.4101   -4.8017 C.ar      1 <0>        -0.1060
      8 C7         11.3556    7.1600   -4.8164 C.ar      1 <0>         0.0888
      9 O2         12.1010    7.5100   -5.8987 O.3       1 <0>        -0.4846
     10 C8          9.0081    6.0639   -1.4139 C.3       1 <0>         0.1079
     11 H1          9.5393    5.3175   -0.8232 H         1 <0>         0.1015
     12 C9          8.7336    7.3050   -0.5539 C.3       1 <0>         0.0637
     13 H2          9.6763    7.7242   -0.2021 H         1 <0>         0.1378
     14 O3          7.9345    6.9072    0.5654 O.3       1 <0>        -0.2864
     15 C10         6.8688    6.1028    0.3014 C.ar      1 <0>         0.0668
     16 C11         5.8648    5.9697    1.2491 C.ar      1 <0>        -0.1165
     17 C12         4.7806    5.1501    0.9988 C.ar      1 <0>        -0.0569
     18 C13         4.6930    4.4616   -0.1970 C.ar      1 <0>        -0.0916
     19 C14         5.6915    4.5872   -1.1441 C.ar      1 <0>        -0.0934
     20 C15         6.7797    5.4123   -0.9013 C.ar      1 <0>         0.0434
     21 O4          7.7513    5.5320   -1.8469 O.3       1 <0>        -0.2948
     22 C16         3.5097    3.5678   -0.4654 C.3       1 <0>         0.1525
     23 H3          3.4169    3.3987   -1.5382 H         1 <0>         0.1043
     24 C17         3.7100    2.2237    0.2499 C.3       1 <0>         0.0564
     25 H4          4.5325    1.7777   -0.1029 H         1 <0>         0.0913
     26 C18         2.4782    1.3803   -0.0262 C.2       1 <0>         0.3689
     27 O5          2.5579    0.1915   -0.2578 O.2       1 <0>        -0.4142
     28 C19         1.1867    2.0755    0.0019 C.ar      1 <0>        -0.2909
     29 C20        -0.0163    1.3519    0.0095 C.ar      1 <0>         0.2229
     30 C21        -1.2207    2.0324    0.0188 C.ar      1 <0>        -0.2228
     31 C22        -1.2350    3.4219    0.0328 C.ar      1 <0>         0.2012
     32 C23        -0.0480    4.1430    0.0300 C.ar      1 <0>        -0.2009
     33 C24         1.1679    3.4824    0.0174 C.ar      1 <0>         0.2214
     34 O6          2.3218    4.1904    0.0235 O.3       1 <0>        -0.2854
     35 O7         -2.4208    4.0810    0.0438 O.3       1 <0>        -0.4908
     36 O8          0.0021   -0.0041    0.0020 O.3       1 <0>        -0.4775
     37 O9          3.8498    2.4352    1.6562 O.3       1 <0>        -0.5271
     38 C25         7.9813    8.3496   -1.3809 C.3       1 <0>         0.0473
     39 O10         7.8307    9.5460   -0.6140 O.3       1 <0>        -0.5609
     40 H5         14.9212    5.5353   -2.7102 H         1 <0>         0.1050
     41 H6         13.6739    6.3039   -1.6993 H         1 <0>         0.0576
     42 H7         13.3729    4.7056   -2.4227 H         1 <0>         0.0578
     43 H8         11.6644    5.7323   -1.7650 H         1 <0>         0.1380
     44 H9          8.1745    7.2495   -3.6903 H         1 <0>         0.1352
     45 H10         9.5214    7.8833   -5.6503 H         1 <0>         0.1425
     46 H11        12.4660    8.4043   -5.8524 H         1 <0>         0.3908
     47 H12         5.9305    6.5069    2.1837 H         1 <0>         0.1399
     48 H13         4.0003    5.0474    1.7383 H         1 <0>         0.1427
     49 H14         5.6225    4.0454   -2.0758 H         1 <0>         0.1383
     50 H15        -2.1506    1.4832    0.0190 H         1 <0>         0.1462
     51 H16        -0.0740    5.2226    0.0374 H         1 <0>         0.1499
     52 H17        -2.7699    4.2772   -0.8364 H         1 <0>         0.4039
     53 H18         0.0158   -0.4021    0.8832 H         1 <0>         0.4012
     54 H19         3.9457    1.6208    2.1688 H         1 <0>         0.3886
     55 H20         8.5438    8.5683   -2.2886 H         1 <0>         0.0751
     56 H21         6.9978    7.9626   -1.6473 H         1 <0>         0.0556
     57 H22         7.3615   10.2535   -1.0770 H         1 <0>         0.3846
@<TRIPOS>BOND
     1    1    2 1
     2    1   40 1
     3    1   41 1
     4    1   42 1
     5    2    3 1
     6    3    8 ar
     7    3    4 ar
     8    4    5 ar
     9    4   43 1
    10    5    6 ar
    11    5   10 1
    12    6    7 ar
    13    6   44 1
    14    7    8 ar
    15    7   45 1
    16    8    9 1
    17    9   46 1
    18   10   11 1
    19   10   21 1
    20   10   12 1
    21   12   13 1
    22   12   14 1
    23   12   38 1
    24   14   15 1
    25   15   20 ar
    26   15   16 ar
    27   16   17 ar
    28   16   47 1
    29   17   18 ar
    30   17   48 1
    31   18   19 ar
    32   18   22 1
    33   19   20 ar
    34   19   49 1
    35   20   21 1
    36   22   23 1
    37   22   34 1
    38   22   24 1
    39   24   25 1
    40   24   26 1
    41   24   37 1
    42   26   27 2
    43   26   28 1
    44   28   33 ar
    45   28   29 ar
    46   29   30 ar
    47   29   36 1
    48   30   31 ar
    49   30   50 1
    50   31   32 ar
    51   31   35 1
    52   32   33 ar
    53   32   51 1
    54   33   34 1
    55   35   52 1
    56   36   53 1
    57   37   54 1
    58   38   39 1
    59   38   55 1
    60   38   56 1
    61   39   57 1
@<TRIPOS>MOLECULE
ZINC20836522
   47    49     0     0     0
SMALL
USER_CHARGES
N-[5-(2-amino-2-oxo-ethyl)sulfanyl-1,3,4-thiadiazol-2-yl]-2-[[5-(N'-cyclohexylidenehydrazino)-4H-1,2,4-triazol-3-yl]sulfanyl]acetamide
@<TRIPOS>ATOM
      1 C1         -4.7027   -0.3629    0.7195 C.3       1 <0>        -0.1259
      2 C2         -4.6065    1.1549    0.8829 C.3       1 <0>        -0.1188
      3 C3         -3.6566    1.7218   -0.1774 C.3       1 <0>        -0.0629
      4 C4         -2.3323    0.9984   -0.0728 C.2       1 <0>         0.1200
      5 N1         -1.2338    1.6498    0.0169 N.2       1 <0>        -0.2595
      6 N2         -0.0101    0.9687   -0.0250 N.pl3     1 <0>        -0.5659
      7 C5          1.1761    1.6591    0.1841 C.2       1 <0>         0.5434
      8 N3          2.4327    1.1214    0.1655 N.2       1 <0>        -0.5540
      9 C6          3.3254    2.1252    0.4140 C.2       1 <0>         0.2089
     10 N4          2.6494    3.2369    0.5792 N.2       1 <0>        -0.3303
     11 N5          1.2881    2.9421    0.4283 N.pl3     1 <0>        -0.4766
     12 S1          5.0772    1.9561    0.4983 S.3       1 <0>         0.1213
     13 C7          5.6636    3.6355    0.8538 C.3       1 <0>        -0.1609
     14 C8          7.1674    3.6320    0.9529 C.2       1 <0>         0.5355
     15 O1          7.7829    2.5983    0.7988 O.2       1 <0>        -0.4512
     16 N6          7.8282    4.7776    1.2127 N.am      1 <0>        -0.6215
     17 C9          9.2180    4.7744    1.3042 C.2       1 <0>         0.2881
     18 N7         10.0765    3.7765    1.1726 N.2       1 <0>        -0.2736
     19 N8         11.3211    3.9458    1.2867 N.2       1 <0>        -0.2601
     20 C10        11.8454    5.1348    1.5457 C.2       1 <0>        -0.0050
     21 S2         10.3532    6.1211    1.6259 S.3       1 <0>         0.0508
     22 S3         13.5301    5.6107    1.7459 S.3       1 <0>         0.1327
     23 C11        14.4528    4.0661    1.5151 C.3       1 <0>        -0.1645
     24 C12        15.9282    4.3356    1.6627 C.2       1 <0>         0.5409
     25 O2         16.3187    5.4590    1.9001 O.2       1 <0>        -0.5358
     26 N9         16.8137    3.3281    1.5308 N.am      1 <0>        -0.8684
     27 C13        -2.3385   -0.5142   -0.0831 C.3       1 <0>        -0.1231
     28 C14        -3.3366   -1.0001    0.9794 C.3       1 <0>        -0.1111
     29 H1         -5.0283   -0.5984   -0.3045 H         1 <0>         0.0691
     30 H2         -5.4352   -0.7601    1.4376 H         1 <0>         0.0705
     31 H3         -5.6042    1.6010    0.7584 H         1 <0>         0.0774
     32 H4         -4.2213    1.3921    1.8856 H         1 <0>         0.0672
     33 H5         -4.0896    1.5688   -1.1770 H         1 <0>         0.0950
     34 H6         -3.5111    2.7979   -0.0016 H         1 <0>         0.0860
     35 H7          0.0108   -0.1130   -0.2236 H         1 <0>         0.4350
     36 H8          5.3510    4.3120    0.0447 H         1 <0>         0.1327
     37 H9          5.2341    3.9799    1.8061 H         1 <0>         0.1326
     38 H10         7.2699    5.7150    1.3525 H         1 <0>         0.4611
     39 H11        14.1363    3.3334    2.2720 H         1 <0>         0.1299
     40 H12        14.2519    3.6655    0.5105 H         1 <0>         0.1299
     41 H13        17.8906    3.5247    1.6385 H         1 <0>         0.4321
     42 H14        16.4595    2.3092    1.3154 H         1 <0>         0.4267
     43 H15        -2.6421   -0.8728   -1.0777 H         1 <0>         0.0953
     44 H16        -1.3298   -0.8866    0.1488 H         1 <0>         0.0713
     45 H17        -2.9807   -0.7096    1.9789 H         1 <0>         0.0661
     46 H18        -3.4267   -2.0951    0.9263 H         1 <0>         0.0749
     47 H19         0.3883    3.5726    0.4805 H         1 <0>         0.4745
@<TRIPOS>BOND
     1    1   28 1
     2    1    2 1
     3    1   29 1
     4    1   30 1
     5    2    3 1
     6    2   31 1
     7    2   32 1
     8    3    4 1
     9    3   33 1
    10    3   34 1
    11    4    5 2
    12    4   27 1
    13    5    6 1
    14    6    7 1
    15    6   35 1
    16    7   11 1
    17    7    8 2
    18    8    9 1
    19    9   10 2
    20    9   12 1
    21   10   11 1
    22   11   47 1
    23   12   13 1
    24   13   14 1
    25   13   36 1
    26   13   37 1
    27   14   15 2
    28   14   16 am
    29   16   17 1
    30   16   38 1
    31   17   21 1
    32   17   18 2
    33   18   19 1
    34   19   20 2
    35   20   21 1
    36   20   22 1
    37   22   23 1
    38   23   24 1
    39   23   39 1
    40   23   40 1
    41   24   25 2
    42   24   26 am
    43   26   41 1
    44   26   42 1
    45   27   28 1
    46   27   43 1
    47   27   44 1
    48   28   45 1
    49   28   46 1
@<TRIPOS>MOLECULE
ZINC14984519
   57    61     0     0     0
SMALL
USER_CHARGES

@<TRIPOS>ATOM
      1 C1         -0.0173    1.4248    0.0099 C.3       1 <0>         0.0221
      2 O1          0.0021   -0.0041    0.0020 O.3       1 <0>        -0.3041
      3 C2          0.6262   -0.6188    1.0422 C.ar      1 <0>         0.1076
      4 C3          1.2021    0.1367    2.0510 C.ar      1 <0>        -0.1771
      5 C4          1.8358   -0.4897    3.1079 C.ar      1 <0>        -0.0620
      6 C5          1.8971   -1.8699    3.1612 C.ar      1 <0>        -0.1144
      7 C6          1.3251   -2.6295    2.1578 C.ar      1 <0>        -0.1058
      8 C7          0.6830   -2.0080    1.0988 C.ar      1 <0>         0.0879
      9 O2          0.1145   -2.7540    0.1140 O.3       1 <0>        -0.4846
     10 C8          2.4615    0.3336    4.2041 C.3       1 <0>         0.1070
     11 H1          1.9705    1.3051    4.2598 H         1 <0>         0.1026
     12 C9          3.9570    0.5252    3.9179 C.3       1 <0>         0.0649
     13 H2          4.0858    1.0529    2.9729 H         1 <0>         0.1376
     14 O3          4.5219    1.2975    4.9830 O.3       1 <0>        -0.2862
     15 C10         4.1887    0.9277    6.2498 C.ar      1 <0>         0.0517
     16 C11         4.9576    1.3751    7.3140 C.ar      1 <0>        -0.0756
     17 C12         4.6300    1.0108    8.6062 C.ar      1 <0>        -0.0816
     18 C13         3.5356    0.1995    8.8418 C.ar      1 <0>        -0.0881
     19 C14         2.7663   -0.2510    7.7858 C.ar      1 <0>        -0.1121
     20 C15         3.0903    0.1100    6.4864 C.ar      1 <0>         0.0591
     21 O4          2.3273   -0.3478    5.4561 O.3       1 <0>        -0.2944
     22 C16         5.4674    1.4983    9.7604 C.3       1 <0>         0.1581
     23 H3          5.9696    2.4242    9.4799 H         1 <0>         0.0991
     24 C17         6.5158    0.4347   10.1181 C.3       1 <0>         0.0433
     25 H4          6.0209   -0.4986   10.3868 H         1 <0>         0.1055
     26 C18         7.3040    0.9618   11.3037 C.2       1 <0>         0.3740
     27 O5          8.5058    0.8140   11.3873 O.2       1 <0>        -0.4213
     28 C19         6.5388    1.6595   12.3429 C.ar      1 <0>        -0.2940
     29 C20         7.1225    1.9563   13.5846 C.ar      1 <0>         0.2243
     30 C21         6.3826    2.6257   14.5428 C.ar      1 <0>        -0.2183
     31 C22         5.0708    2.9978   14.2748 C.ar      1 <0>         0.2003
     32 C23         4.4862    2.7017   13.0502 C.ar      1 <0>        -0.1974
     33 C24         5.2076    2.0309   12.0784 C.ar      1 <0>         0.2103
     34 O6          4.6287    1.7349   10.8909 O.3       1 <0>        -0.2878
     35 O7          4.3536    3.6567   15.2193 O.3       1 <0>        -0.4894
     36 O8          8.4022    1.5891   13.8432 O.3       1 <0>        -0.4789
     37 O9          7.3894    0.2198    9.0078 O.3       1 <0>        -0.5306
     38 C25         4.6474   -0.8383    3.8456 C.3       1 <0>         0.0505
     39 O10         6.0132   -0.6610    3.4646 O.3       1 <0>        -0.5603
     40 H5          1.0053    1.8021    0.0021 H         1 <0>         0.0575
     41 H6         -0.5445    1.7859   -0.8732 H         1 <0>         0.1049
     42 H7         -0.5275    1.7763    0.9067 H         1 <0>         0.0579
     43 H8          1.1562    1.2150    2.0113 H         1 <0>         0.1379
     44 H9          2.3934   -2.3556    3.9883 H         1 <0>         0.1353
     45 H10         1.3747   -3.7075    2.2017 H         1 <0>         0.1423
     46 H11         0.7108   -2.9569   -0.6197 H         1 <0>         0.3904
     47 H12         5.8133    2.0086    7.1325 H         1 <0>         0.1400
     48 H13         3.2817   -0.0830    9.8528 H         1 <0>         0.1387
     49 H14         1.9119   -0.8846    7.9726 H         1 <0>         0.1401
     50 H15         6.8247    2.8591   15.5001 H         1 <0>         0.1475
     51 H16         3.4653    2.9956   12.8560 H         1 <0>         0.1513
     52 H17         4.4303    4.6194   15.1709 H         1 <0>         0.4038
     53 H18         9.0594    2.2551   13.5990 H         1 <0>         0.4044
     54 H19         8.0756   -0.4419    9.1697 H         1 <0>         0.3949
     55 H20         4.6023   -1.3206    4.8221 H         1 <0>         0.0552
     56 H21         4.1426   -1.4625    3.1084 H         1 <0>         0.0721
     57 H22         6.5134   -1.4860    3.3988 H         1 <0>         0.3844
@<TRIPOS>BOND
     1    1    2 1
     2    1   40 1
     3    1   41 1
     4    1   42 1
     5    2    3 1
     6    3    8 ar
     7    3    4 ar
     8    4    5 ar
     9    4   43 1
    10    5    6 ar
    11    5   10 1
    12    6    7 ar
    13    6   44 1
    14    7    8 ar
    15    7   45 1
    16    8    9 1
    17    9   46 1
    18   10   11 1
    19   10   21 1
    20   10   12 1
    21   12   13 1
    22   12   14 1
    23   12   38 1
    24   14   15 1
    25   15   20 ar
    26   15   16 ar
    27   16   17 ar
    28   16   47 1
    29   17   18 ar
    30   17   22 1
    31   18   19 ar
    32   18   48 1
    33   19   20 ar
    34   19   49 1
    35   20   21 1
    36   22   23 1
    37   22   34 1
    38   22   24 1
    39   24   25 1
    40   24   26 1
    41   24   37 1
    42   26   27 2
    43   26   28 1
    44   28   33 ar
    45   28   29 ar
    46   29   30 ar
    47   29   36 1
    48   30   31 ar
    49   30   50 1
    50   31   32 ar
    51   31   35 1
    52   32   33 ar
    53   32   51 1
    54   33   34 1
    55   35   52 1
    56   36   53 1
    57   37   54 1
    58   38   39 1
    59   38   55 1
    60   38   56 1
    61   39   57 1
@<TRIPOS>MOLECULE
ZINC39560094
   70    75     0     0     0
SMALL
USER_CHARGES

@<TRIPOS>ATOM
      1 C1         -0.0173    1.4248    0.0099 C.3       1 <0>         0.0262
      2 O1          0.0021   -0.0041    0.0020 O.3       1 <0>        -0.3190
      3 C2         -1.2009   -0.6378    0.0101 C.ar      1 <0>         0.1177
      4 C3         -2.3637    0.1221    0.0195 C.ar      1 <0>        -0.1973
      5 C4         -3.6220   -0.4568    0.0291 C.ar      1 <0>        -0.0514
      6 C5         -3.6750   -1.8471    0.0281 C.ar      1 <0>         0.0592
      7 C6         -2.4962   -2.6240    0.0166 C.ar      1 <0>        -0.0456
      8 C7         -1.2319   -2.0257    0.0029 C.ar      1 <0>        -0.1148
      9 C8         -2.9292   -4.0059    0.0163 C.2       1 <0>        -0.1392
     10 C9         -4.2847   -3.9987    0.0221 C.2       1 <0>         0.0366
     11 N1         -4.7603   -2.7128    0.0386 N.am      1 <0>        -0.4298
     12 C10        -6.0135   -2.2702    0.0724 C.2       1 <0>         0.5857
     13 O2         -6.0999   -1.0615    0.1848 O.2       1 <0>        -0.5389
     14 C11        -7.2491   -2.9137    0.0045 C.2       1 <0>        -0.3240
     15 C12        -8.3462   -2.1186   -0.0406 C.2       1 <0>         0.2171
     16 O3         -9.5972   -2.5648   -0.1199 O.3       1 <0>        -0.3225
     17 C13        -9.8561   -3.9513   -0.3106 C.3       1 <0>         0.2599
     18 H1         -9.7863   -4.1919   -1.3714 H         1 <0>         0.1027
     19 C14        -8.8241   -4.7711    0.4681 C.3       1 <0>        -0.0734
     20 H2         -8.9060   -4.5470    1.5317 H         1 <0>         0.0979
     21 C15        -7.4236   -4.3962   -0.0300 C.3       1 <0>        -0.0205
     22 H3         -7.3488   -4.7136   -1.0701 H         1 <0>         0.0806
     23 C16        -6.3801   -5.1599    0.7353 C.3       1 <0>        -0.1098
     24 C17        -5.0619   -5.2838    0.0274 C.3       1 <0>         0.1554
     25 H4         -5.2535   -5.5720   -1.0062 H         1 <0>         0.0983
     26 N2         -4.2224   -6.3272    0.6363 N.3       1 <0>        -0.6616
     27 C18        -2.9651   -6.4949   -0.0965 C.3       1 <0>         0.0559
     28 C19        -2.0875   -5.2519    0.0073 C.3       1 <0>        -0.0875
     29 C20        -9.0694   -6.2405    0.2405 C.2       1 <0>        -0.1469
     30 C21        -9.3388   -7.0244    1.2549 C.2       1 <0>        -0.1623
     31 O4        -11.1681   -4.2611    0.1634 O.3       1 <0>        -0.3273
     32 C22       -12.2190   -3.7214   -0.6405 C.3       1 <0>         0.2215
     33 H5        -12.0359   -2.6610   -0.8141 H         1 <0>         0.0696
     34 C23       -13.5568   -3.8968    0.0829 C.3       1 <0>         0.0666
     35 H6        -13.5414   -3.3366    1.0179 H         1 <0>         0.0709
     36 C24       -14.6844   -3.3708   -0.8105 C.3       1 <0>         0.0789
     37 H7        -14.5471   -2.3029   -0.9802 H         1 <0>         0.0792
     38 C25       -14.6468   -4.1116   -2.1507 C.3       1 <0>         0.0909
     39 H8        -15.4109   -3.7051   -2.8132 H         1 <0>         0.0745
     40 C26       -13.2669   -3.9279   -2.7879 C.3       1 <0>         0.1145
     41 H9        -13.0976   -2.8703   -2.9898 H         1 <0>         0.0801
     42 O5        -12.2622   -4.4088   -1.8927 O.3       1 <0>        -0.3697
     43 C27       -13.2014   -4.7144   -4.0986 C.3       1 <0>         0.0892
     44 O6        -11.9577   -4.4505   -4.7509 O.3       1 <0>        -0.5700
     45 O7        -14.8929   -5.5026   -1.9345 O.3       1 <0>        -0.5285
     46 O8        -15.9435   -3.5955   -0.1733 O.3       1 <0>        -0.5469
     47 O9        -13.7720   -5.2821    0.3597 O.3       1 <0>        -0.5211
     48 H10         1.0053    1.8021    0.0021 H         1 <0>         0.1005
     49 H11        -0.5445    1.7859   -0.8732 H         1 <0>         0.0556
     50 H12        -0.5275    1.7763    0.9067 H         1 <0>         0.0556
     51 H13        -2.2840    1.1991    0.0197 H         1 <0>         0.1325
     52 H14        -4.5200    0.1431    0.0374 H         1 <0>         0.1578
     53 H15        -0.3260   -2.6136   -0.0091 H         1 <0>         0.1423
     54 H16        -8.1944   -1.0498   -0.0096 H         1 <0>         0.1981
     55 H17        -6.2150   -4.6593    1.6894 H         1 <0>         0.0646
     56 H18        -6.7612   -6.1614    0.9352 H         1 <0>         0.1026
     57 H19        -4.0496   -6.1295    1.6105 H         1 <0>         0.3471
     58 H20        -2.4246   -7.3478    0.3140 H         1 <0>         0.0904
     59 H21        -3.1874   -6.6873   -1.1461 H         1 <0>         0.0780
     60 H22        -1.4080   -5.2200   -0.8444 H         1 <0>         0.0848
     61 H23        -1.5060   -5.2989    0.9281 H         1 <0>         0.0782
     62 H24        -9.0230   -6.6472   -0.7589 H         1 <0>         0.1167
     63 H25        -9.3851   -6.6176    2.2543 H         1 <0>         0.0970
     64 H26        -9.5145   -8.0774    1.0918 H         1 <0>         0.1052
     65 H27       -13.2816   -5.7807   -3.8870 H         1 <0>         0.0702
     66 H28       -14.0233   -4.4098   -4.7466 H         1 <0>         0.0645
     67 H29       -11.8471   -4.9171   -5.5906 H         1 <0>         0.3845
     68 H30       -15.7498   -5.6918   -1.5283 H         1 <0>         0.3852
     69 H31       -16.0334   -3.1593    0.6851 H         1 <0>         0.3869
     70 H32       -13.0914   -5.6819    0.9184 H         1 <0>         0.3805
@<TRIPOS>BOND
     1    1    2 1
     2    1   48 1
     3    1   49 1
     4    1   50 1
     5    2    3 1
     6    3    8 ar
     7    3    4 ar
     8    4    5 ar
     9    4   51 1
    10    5    6 ar
    11    5   52 1
    12    6   11 1
    13    6    7 ar
    14    7    8 ar
    15    7    9 1
    16    8   53 1
    17    9   28 1
    18    9   10 2
    19   10   24 1
    20   10   11 1
    21   11   12 am
    22   12   13 2
    23   12   14 1
    24   14   21 1
    25   14   15 2
    26   15   16 1
    27   15   54 1
    28   16   17 1
    29   17   18 1
    30   17   19 1
    31   17   31 1
    32   19   20 1
    33   19   21 1
    34   19   29 1
    35   21   22 1
    36   21   23 1
    37   23   24 1
    38   23   55 1
    39   23   56 1
    40   24   25 1
    41   24   26 1
    42   26   27 1
    43   26   57 1
    44   27   28 1
    45   27   58 1
    46   27   59 1
    47   28   60 1
    48   28   61 1
    49   29   30 2
    50   29   62 1
    51   30   63 1
    52   30   64 1
    53   31   32 1
    54   32   33 1
    55   32   42 1
    56   32   34 1
    57   34   35 1
    58   34   36 1
    59   34   47 1
    60   36   37 1
    61   36   38 1
    62   36   46 1
    63   38   39 1
    64   38   40 1
    65   38   45 1
    66   40   41 1
    67   40   42 1
    68   40   43 1
    69   43   44 1
    70   43   65 1
    71   43   66 1
    72   44   67 1
    73   45   68 1
    74   46   69 1
    75   47   70 1
@<TRIPOS>MOLECULE
ZINC12323328
   52    55     0     0     0
SMALL
USER_CHARGES

@<TRIPOS>ATOM
      1 C1          0.1533    1.3748    0.6263 C.ar      1 <0>        -0.1332
      2 C2          1.1775    2.0860    0.0153 C.ar      1 <0>         0.1747
      3 C3          2.2181    1.4063   -0.6039 C.ar      1 <0>        -0.1101
      4 C4          2.2320    0.0241   -0.6106 C.ar      1 <0>        -0.0048
      5 C5          1.2099   -0.6823   -0.0014 C.ar      1 <0>        -0.1181
      6 C6          0.1719   -0.0074    0.6167 C.ar      1 <0>        -0.0044
      7 Cl1        -1.1079   -0.8972    1.3808 Cl        1 <0>        -0.0495
      8 Cl2         3.5326   -0.8264   -1.3845 Cl        1 <0>        -0.0492
      9 N1          1.1609    3.4851    0.0231 N.am      1 <0>        -0.6724
     10 C7          2.3166    4.1723    0.1153 C.2       1 <0>         0.5144
     11 O1          3.3757    3.5813    0.1097 O.2       1 <0>        -0.4940
     12 C8          2.2929    5.6751    0.2254 C.3       1 <0>        -0.0152
     13 H1          1.7422    5.9668    1.1197 H         1 <0>         0.1363
     14 C9          1.6134    6.2691   -1.0116 C.3       1 <0>        -0.1092
     15 C10         2.5352    6.1611   -2.1968 C.2       1 <0>         0.4190
     16 N2          3.8200    6.2844   -2.0714 N.2       1 <0>        -0.5698
     17 C11         4.4087    6.4732   -0.8602 C.2       1 <0>         0.4715
     18 C12         3.7029    6.1966    0.3092 C.2       1 <0>        -0.3765
     19 C13         4.3151    6.4099    1.5450 C.2       1 <0>         0.5681
     20 O2          3.7150    6.1866    2.5846 O.2       1 <0>        -0.5428
     21 N3          5.5856    6.8680    1.5670 N.am      1 <0>        -0.6548
     22 H2          6.0248    7.0360    2.4153 H         1 <0>         0.4121
     23 C14         6.2508    7.0950    0.4010 C.2       1 <0>         0.6585
     24 N4          5.6785    6.8998   -0.7748 N.2       1 <0>        -0.5732
     25 N5          7.5461    7.5381    0.4465 N.pl3     1 <0>        -0.5834
     26 C15         8.2555    7.6468    1.7285 C.3       1 <0>         0.1090
     27 C16         9.5730    6.8713    1.6303 C.3       1 <0>        -0.1173
     28 C17        10.3699    7.3779    0.4260 C.3       1 <0>        -0.1102
     29 C18         9.5699    7.1353   -0.8559 C.3       1 <0>        -0.1293
     30 C19         8.2544    7.9080   -0.7865 C.3       1 <0>         0.1263
     31 C20        11.6819    6.6408    0.3461 C.2       1 <0>         0.5212
     32 O3         11.9528    5.7938    1.1709 O.2       1 <0>        -0.5385
     33 N6         12.5542    6.9227   -0.6419 N.am      1 <0>        -0.8546
     34 O4          2.0135    5.9316   -3.4157 O.3       1 <0>        -0.4466
     35 H3         -0.6549    1.9011    1.1124 H         1 <0>         0.1453
     36 H4          3.0158    1.9572   -1.0801 H         1 <0>         0.1544
     37 H5          1.2222   -1.7622   -0.0084 H         1 <0>         0.1467
     38 H6          0.3175    3.9604   -0.0378 H         1 <0>         0.4154
     39 H7          0.6928    5.7231   -1.2172 H         1 <0>         0.1136
     40 H8          1.3793    7.3178   -0.8285 H         1 <0>         0.1285
     41 H9          8.4636    8.6950    1.9432 H         1 <0>         0.0905
     42 H10         7.6410    7.2239    2.5232 H         1 <0>         0.0839
     43 H11        10.1532    7.0231    2.5404 H         1 <0>         0.0941
     44 H12         9.3616    5.8092    1.5059 H         1 <0>         0.0810
     45 H13        10.5597    8.4453    0.5391 H         1 <0>         0.1052
     46 H14        10.1480    7.4750   -1.7153 H         1 <0>         0.0883
     47 H15         9.3585    6.0708   -0.9568 H         1 <0>         0.0791
     48 H16         7.6391    7.6574   -1.6506 H         1 <0>         0.1171
     49 H17         8.4624    8.9780   -0.7814 H         1 <0>         0.0793
     50 H18        12.3375    7.6000   -1.3016 H         1 <0>         0.4020
     51 H19        13.3987    6.4482   -0.6933 H         1 <0>         0.4038
     52 H20         2.6722    5.8761   -4.1215 H         1 <0>         0.4177
@<TRIPOS>BOND
     1    1    6 ar
     2    1    2 ar
     3    1   35 1
     4    2    3 ar
     5    2    9 1
     6    3    4 ar
     7    3   36 1
     8    4    5 ar
     9    4    8 1
    10    5    6 ar
    11    5   37 1
    12    6    7 1
    13    9   10 am
    14    9   38 1
    15   10   11 2
    16   10   12 1
    17   12   13 1
    18   12   18 1
    19   12   14 1
    20   14   15 1
    21   14   39 1
    22   14   40 1
    23   15   16 2
    24   15   34 1
    25   16   17 1
    26   17   24 1
    27   17   18 2
    28   18   19 1
    29   19   20 2
    30   19   21 am
    31   21   22 1
    32   21   23 1
    33   23   24 2
    34   23   25 1
    35   25   30 1
    36   25   26 1
    37   26   27 1
    38   26   41 1
    39   26   42 1
    40   27   28 1
    41   27   43 1
    42   27   44 1
    43   28   29 1
    44   28   31 1
    45   28   45 1
    46   29   30 1
    47   29   46 1
    48   29   47 1
    49   30   48 1
    50   30   49 1
    51   31   32 2
    52   31   33 am
    53   33   50 1
    54   33   51 1
    55   34   52 1
@<TRIPOS>MOLECULE
ZINC64728942
   58    61     0     0     0
SMALL
USER_CHARGES

@<TRIPOS>ATOM
      1 C1         -0.7979    1.4841    2.1389 C.3       1 <0>        -0.1482
      2 C2         -0.6309    0.0004    1.8051 C.3       1 <0>        -0.0891
      3 C3         -1.9757   -0.5952    1.4767 C.ar      1 <0>        -0.0661
      4 C4         -2.7523   -1.1403    2.4833 C.ar      1 <0>        -0.1191
      5 C5         -3.9849   -1.6866    2.1883 C.ar      1 <0>        -0.0794
      6 C6         -4.4467   -1.6884    0.8735 C.ar      1 <0>        -0.0430
      7 C7         -3.6601   -1.1379   -0.1366 C.ar      1 <0>        -0.0940
      8 C8         -2.4314   -0.5895    0.1707 C.ar      1 <0>        -0.1188
      9 C9         -5.7708   -2.2747    0.5502 C.2       1 <0>         0.0270
     10 C10        -6.3053   -2.3312   -0.6849 C.2       1 <0>        -0.1512
     11 C11        -7.6450   -3.0128   -0.4706 C.3       1 <0>        -0.0593
     12 H1         -7.6916   -3.9519   -1.0220 H         1 <0>         0.1719
     13 N1         -7.6672   -3.2603    0.9805 N.2       1 <0>        -0.1135
     14 N2         -6.6126   -2.8357    1.4574 N.2       1 <0>        -0.1425
     15 C12        -8.7758   -2.1030   -0.8762 C.2       1 <0>         0.5543
     16 O1         -9.3906   -1.4863   -0.0320 O.2       1 <0>        -0.4632
     17 N3         -9.1040   -1.9746   -2.1771 N.am      1 <0>        -0.7152
     18 C13       -10.2670   -1.1718   -2.5634 C.3       1 <0>         0.1732
     19 H2        -11.1847   -1.7543   -2.4830 H         1 <0>         0.1288
     20 C14       -10.0967   -0.6021   -3.9894 C.3       1 <0>         0.0550
     21 H3        -10.9686   -0.8799   -4.5815 H         1 <0>         0.1329
     22 N4         -9.9475    0.8543   -4.0315 N.3       1 <0>        -0.6656
     23 C15       -10.7116    1.5358   -2.9451 C.3       1 <0>         0.3641
     24 H4        -11.7761    1.5801   -3.1752 H         1 <0>         0.1315
     25 S1        -10.3715    0.3674   -1.5531 S.3       1 <0>        -0.2658
     26 N5        -10.1730    2.8698   -2.6686 N.pl3     1 <0>        -0.7128
     27 C16       -10.9208    3.7841   -1.9231 C.ar      1 <0>         0.2008
     28 C17       -12.1729    3.4281   -1.4382 C.ar      1 <0>        -0.1785
     29 C18       -12.9094    4.3344   -0.7010 C.ar      1 <0>        -0.0736
     30 C19       -12.4020    5.5952   -0.4458 C.ar      1 <0>        -0.1324
     31 C20       -11.1559    5.9529   -0.9270 C.ar      1 <0>        -0.0755
     32 C21       -10.4116    5.0495   -1.6600 C.ar      1 <0>        -0.1757
     33 C22       -13.2090    6.5819    0.3582 C.3       1 <0>        -0.1094
     34 C23        -8.8750   -1.2255   -4.6138 C.2       1 <0>         0.5186
     35 O2         -7.8284   -0.6132   -4.6411 O.2       1 <0>        -0.5177
     36 N6         -8.9453   -2.4636   -5.1417 N.am      1 <0>        -0.8489
     37 H5          0.1748    1.9149    2.3764 H         1 <0>         0.0603
     38 H6         -1.2257    2.0035    1.2814 H         1 <0>         0.0560
     39 H7         -1.4619    1.5911    2.9967 H         1 <0>         0.0570
     40 H8          0.0331   -0.1066    0.9473 H         1 <0>         0.0739
     41 H9         -0.2031   -0.5190    2.6627 H         1 <0>         0.0748
     42 H10        -2.3932   -1.1387    3.5019 H         1 <0>         0.1286
     43 H11        -4.5902   -2.1122    2.9749 H         1 <0>         0.1354
     44 H12        -4.0131   -1.1367   -1.1572 H         1 <0>         0.1232
     45 H13        -1.8229   -0.1586   -0.6107 H         1 <0>         0.1275
     46 H14        -5.8802   -1.9745   -1.6115 H         1 <0>         0.1788
     47 H15        -8.5702   -2.4138   -2.8576 H         1 <0>         0.4035
     48 H16        -8.9740    1.1189   -4.0097 H         1 <0>         0.3711
     49 H17        -9.2971    3.1182   -3.0033 H         1 <0>         0.4068
     50 H18       -12.5701    2.4439   -1.6377 H         1 <0>         0.1220
     51 H19       -13.8830    4.0583   -0.3237 H         1 <0>         0.1234
     52 H20       -10.7625    6.9384   -0.7259 H         1 <0>         0.1234
     53 H21        -9.4366    5.3279   -2.0318 H         1 <0>         0.1217
     54 H22       -12.9701    6.4704    1.4158 H         1 <0>         0.0662
     55 H23       -12.9691    7.5953    0.0363 H         1 <0>         0.0632
     56 H24       -14.2714    6.3935    0.2039 H         1 <0>         0.0635
     57 H25        -9.7823   -2.9533   -5.1198 H         1 <0>         0.4084
     58 H26        -8.1589   -2.8649   -5.5436 H         1 <0>         0.4118
@<TRIPOS>BOND
     1    1    2 1
     2    1   37 1
     3    1   38 1
     4    1   39 1
     5    2    3 1
     6    2   40 1
     7    2   41 1
     8    3    8 ar
     9    3    4 ar
    10    4    5 ar
    11    4   42 1
    12    5    6 ar
    13    5   43 1
    14    6    7 ar
    15    6    9 1
    16    7    8 ar
    17    7   44 1
    18    8   45 1
    19    9   14 1
    20    9   10 2
    21   10   11 1
    22   10   46 1
    23   11   12 1
    24   11   13 1
    25   11   15 1
    26   13   14 2
    27   15   16 2
    28   15   17 am
    29   17   18 1
    30   17   47 1
    31   18   19 1
    32   18   25 1
    33   18   20 1
    34   20   21 1
    35   20   22 1
    36   20   34 1
    37   22   23 1
    38   22   48 1
    39   23   24 1
    40   23   25 1
    41   23   26 1
    42   26   27 1
    43   26   49 1
    44   27   32 ar
    45   27   28 ar
    46   28   29 ar
    47   28   50 1
    48   29   30 ar
    49   29   51 1
    50   30   31 ar
    51   30   33 1
    52   31   32 ar
    53   31   52 1
    54   32   53 1
    55   33   54 1
    56   33   55 1
    57   33   56 1
    58   34   35 2
    59   34   36 am
    60   36   57 1
    61   36   58 1
@<TRIPOS>MOLECULE
ZINC12886739
   64    69     0     0     0
SMALL
USER_CHARGES
(1S,3R,3aR,6aS)-1-(1H-indol-3-ylmethyl)-5-(3-methoxypropyl)-5'-methyl-spiro[1,2,3a,6a-tetrahydropyrrolo[4,3-c]pyrrole-3,3'-indoline]-2',4,6-trione
@<TRIPOS>ATOM
      1 C1         -2.6385   -2.8905   -6.2933 C.3       1 <0>        -0.1223
      2 C2         -2.7213   -1.4296   -5.9331 C.ar      1 <0>        -0.0866
      3 C3         -2.4777   -0.4641   -6.8929 C.ar      1 <0>        -0.0469
      4 C4         -2.5512    0.8746   -6.5688 C.ar      1 <0>        -0.1180
      5 C5         -2.8717    1.2648   -5.2706 C.ar      1 <0>         0.1648
      6 C6         -3.1148    0.2845   -4.3133 C.ar      1 <0>        -0.1948
      7 C7         -3.0413   -1.0508   -4.6414 C.ar      1 <0>        -0.0454
      8 C8         -3.4268    1.0212   -3.0415 C.3       1 <0>         0.0904
      9 C9         -4.8204    0.6626   -2.5114 C.3       1 <0>        -0.1218
     10 H1         -5.4910    0.3139   -3.2968 H         1 <0>         0.1829
     11 C10        -4.5580   -0.4126   -1.4201 C.3       1 <0>        -0.1348
     12 H2         -5.0926   -1.3439   -1.6073 H         1 <0>         0.1856
     13 C11        -3.0262   -0.6000   -1.4081 C.3       1 <0>         0.0454
     14 H3         -2.7409   -1.4444   -2.0356 H         1 <0>         0.1683
     15 C12        -2.5268   -0.8090    0.0229 C.3       1 <0>        -0.0539
     16 C13        -1.0371   -1.0365    0.0069 C.2       1 <0>        -0.2323
     17 C14        -0.4108   -2.2238   -0.0052 C.2       1 <0>         0.1029
     18 N1          0.9445   -2.0363   -0.0174 N.pl3     1 <0>        -0.5847
     19 H4          1.6052   -2.7464   -0.0271 H         1 <0>         0.4255
     20 C15         1.2308   -0.6894   -0.0134 C.ar      1 <0>         0.0998
     21 C16         0.0021   -0.0041    0.0020 C.ar      1 <0>        -0.1130
     22 C17        -0.0169    1.3917    0.0097 C.ar      1 <0>        -0.1095
     23 C18         1.1601    2.0862    0.0022 C.ar      1 <0>        -0.1191
     24 C19         2.3747    1.4149   -0.0138 C.ar      1 <0>        -0.0932
     25 C20         2.4165    0.0376   -0.0212 C.ar      1 <0>        -0.1121
     26 C21        -4.9875    0.2733   -0.1435 C.2       1 <0>         0.5210
     27 O1         -4.9407   -0.2161    0.9646 O.2       1 <0>        -0.4338
     28 N2         -5.4267    1.5050   -0.4268 N.am      1 <0>        -0.5684
     29 C22        -5.3865    1.8330   -1.7388 C.2       1 <0>         0.5170
     30 O2         -5.7405    2.8864   -2.2231 O.2       1 <0>        -0.4082
     31 C23        -5.9192    2.4262    0.6004 C.3       1 <0>         0.0994
     32 C24        -4.7554    3.2631    1.1352 C.3       1 <0>        -0.1364
     33 C25        -5.2697    4.2252    2.2080 C.3       1 <0>         0.0640
     34 O3         -4.1827    5.0069    2.7074 O.3       1 <0>        -0.3917
     35 C26        -4.5571    5.9430    3.7201 C.3       1 <0>         0.0305
     36 C27        -3.3312    2.4786   -3.3998 C.2       1 <0>         0.5257
     37 O4         -3.5128    3.4204   -2.6574 O.2       1 <0>        -0.4241
     38 N3         -3.0056    2.5351   -4.7059 N.am      1 <0>        -0.6393
     39 H5         -1.6214   -3.2475   -6.1317 H         1 <0>         0.0806
     40 H6         -3.3267   -3.4586   -5.6673 H         1 <0>         0.0747
     41 H7         -2.9076   -3.0222   -7.3413 H         1 <0>         0.0789
     42 H8         -2.2283   -0.7598   -7.9013 H         1 <0>         0.1488
     43 H9         -2.3593    1.6226   -7.3239 H         1 <0>         0.1456
     44 H10        -3.2323   -1.8027   -3.8900 H         1 <0>         0.1380
     45 H11        -3.0223   -1.6771    0.4575 H         1 <0>         0.1355
     46 H12        -2.7529    0.0749    0.6193 H         1 <0>         0.0959
     47 H13        -0.9038   -3.1847   -0.0048 H         1 <0>         0.1798
     48 H14        -0.9583    1.9209    0.0170 H         1 <0>         0.1068
     49 H15         1.1449    3.1661    0.0078 H         1 <0>         0.1300
     50 H16         3.2965    1.9776   -0.0199 H         1 <0>         0.1345
     51 H17         3.3667   -0.4756   -0.0327 H         1 <0>         0.1288
     52 H18        -6.6716    3.0851    0.1670 H         1 <0>         0.1057
     53 H19        -6.3623    1.8564    1.4172 H         1 <0>         0.1075
     54 H20        -4.0030    2.6042    1.5686 H         1 <0>         0.0763
     55 H21        -4.3122    3.8329    0.3185 H         1 <0>         0.0820
     56 H22        -6.0221    4.8841    1.7746 H         1 <0>         0.0560
     57 H23        -5.7128    3.6554    3.0247 H         1 <0>         0.0561
     58 H24        -5.2947    6.6375    3.3181 H         1 <0>         0.0453
     59 H25        -4.9855    5.4088    4.5682 H         1 <0>         0.0453
     60 H26        -3.6768    6.4966    4.0466 H         1 <0>         0.0908
     61 H27        -2.8796    3.3620   -5.1971 H         1 <0>         0.4377
     62 N4         -2.5122    0.6480   -1.9768 N.4       1 <0>        -0.4943
     63 H28        -2.4855    1.3810   -1.2583 H         1 <0>         0.4318
     64 H29        -1.5681    0.5038   -2.3539 H         1 <0>         0.4490
@<TRIPOS>BOND
     1    1    2 1
     2    1   39 1
     3    1   40 1
     4    1   41 1
     5    2    7 ar
     6    2    3 ar
     7    3    4 ar
     8    3   42 1
     9    4    5 ar
    10    4   43 1
    11    5   38 1
    12    5    6 ar
    13    6    7 ar
    14    6    8 1
    15    7   44 1
    16    8    9 1
    17    8   36 1
    18    8   62 1
    19    9   10 1
    20    9   29 1
    21    9   11 1
    22   11   12 1
    23   11   13 1
    24   11   26 1
    25   13   14 1
    26   13   15 1
    27   13   62 1
    28   15   16 1
    29   15   45 1
    30   15   46 1
    31   16   21 1
    32   16   17 2
    33   17   18 1
    34   17   47 1
    35   18   19 1
    36   18   20 1
    37   20   25 ar
    38   20   21 ar
    39   21   22 ar
    40   22   23 ar
    41   22   48 1
    42   23   24 ar
    43   23   49 1
    44   24   25 ar
    45   24   50 1
    46   25   51 1
    47   26   27 2
    48   26   28 am
    49   28   29 am
    50   28   31 1
    51   29   30 2
    52   31   32 1
    53   31   52 1
    54   31   53 1
    55   32   33 1
    56   32   54 1
    57   32   55 1
    58   33   34 1
    59   33   56 1
    60   33   57 1
    61   34   35 1
    62   35   58 1
    63   35   59 1
    64   35   60 1
    65   36   37 2
    66   36   38 am
    67   38   61 1
    68   62   63 1
    69   62   64 1
@<TRIPOS>MOLECULE
ZINC25677454
   57    59     0     0     0
SMALL
USER_CHARGES
2-[[(2R)-2-[4-(2,4-dimethylphenyl)sulfonylpiperazin-1-yl]propanoyl]amino]thiophene-3-carboxamide
@<TRIPOS>ATOM
      1 C1         -6.9986    3.3405   -6.0068 C.3       1 <0>        -0.1346
      2 C2         -6.6440    2.3475   -4.9301 C.ar      1 <0>        -0.0129
      3 C3         -6.2722    1.0605   -5.2718 C.ar      1 <0>        -0.1426
      4 C4         -5.9475    0.1497   -4.2843 C.ar      1 <0>        -0.0113
      5 C5         -5.9945    0.5256   -2.9547 C.ar      1 <0>        -0.6950
      6 C6         -6.3712    1.8107   -2.6127 C.ar      1 <0>         0.0158
      7 C7         -6.6910    2.7234   -3.6009 C.ar      1 <0>        -0.1432
      8 C8         -6.4284    2.2187   -1.1631 C.3       1 <0>        -0.1818
      9 S1         -5.5810   -0.6357   -1.6956 S.o2      1 <0>         2.6904
     10 O1         -5.2660   -1.8544   -2.3549 O.2       1 <0>        -0.9378
     11 O2         -6.5993   -0.5445   -0.7088 O.2       1 <0>        -0.9364
     12 N1         -4.1826   -0.1079   -0.9829 N.pl3     1 <0>        -1.0117
     13 C9         -4.2199    0.7063    0.2414 C.3       1 <0>         0.0819
     14 C10        -3.3575    1.9539    0.0228 C.3       1 <0>        -0.0303
     15 N2         -2.0145    1.5470   -0.4117 N.4       1 <0>        -0.3840
     16 C11        -2.0608    0.8515   -1.7049 C.3       1 <0>        -0.0399
     17 C12        -2.8702   -0.4413   -1.5571 C.3       1 <0>         0.1026
     18 C13        -1.1069    2.7007   -0.4667 C.3       1 <0>         0.0216
     19 H1         -1.1129    3.1781    0.5243 H         1 <0>         0.1721
     20 C14        -1.5840    3.6740   -1.5465 C.3       1 <0>        -0.1874
     21 C15         0.2860    2.2288   -0.7958 C.2       1 <0>         0.4981
     22 O3          0.5014    1.0477   -0.9676 O.2       1 <0>        -0.5018
     23 N3          1.2913    3.1199   -0.9046 N.am      1 <0>        -0.5985
     24 C16         2.5718    2.6863   -1.2130 C.2       1 <0>         0.0856
     25 C17         3.7253    3.4451   -1.3723 C.2       1 <0>        -0.2282
     26 C18         4.9359    2.7267   -1.6919 C.2       1 <0>        -0.1138
     27 C19         4.8422    1.3907   -1.8177 C.2       1 <0>        -0.2129
     28 S2          3.1197    1.0691   -1.5005 S.3       1 <0>         0.2281
     29 C20         3.7138    4.9033   -1.2194 C.2       1 <0>         0.5916
     30 O4          2.6765    5.4784   -0.9465 O.2       1 <0>        -0.5787
     31 N4          4.8520    5.6067   -1.3812 N.am      1 <0>        -0.8639
     32 H2         -6.9033    2.8620   -6.9927 H         1 <0>         0.0761
     33 H3         -6.3170    4.2020   -5.9499 H         1 <0>         0.0809
     34 H4         -8.0343    3.6823   -5.8637 H         1 <0>         0.0840
     35 H5         -6.2359    0.7667   -6.3105 H         1 <0>         0.1377
     36 H6         -5.6574   -0.8558   -4.5513 H         1 <0>         0.1460
     37 H7         -6.9818    3.7286   -3.3339 H         1 <0>         0.1346
     38 H8         -6.7460    3.2693   -1.0902 H         1 <0>         0.0910
     39 H9         -5.4324    2.1044   -0.7105 H         1 <0>         0.0719
     40 H10        -7.1486    1.5801   -0.6306 H         1 <0>         0.1145
     41 H11        -5.2582    1.0005    0.4546 H         1 <0>         0.1484
     42 H12        -3.8246    0.1199    1.0839 H         1 <0>         0.1112
     43 H13        -3.8180    2.5871   -0.7498 H         1 <0>         0.1392
     44 H14        -3.2843    2.5186    0.9640 H         1 <0>         0.1528
     45 H15        -2.5382    1.5008   -2.4535 H         1 <0>         0.1306
     46 H16        -1.0375    0.6099   -2.0282 H         1 <0>         0.1661
     47 H17        -2.3442   -1.1390   -0.8889 H         1 <0>         0.1097
     48 H18        -3.0095   -0.9114   -2.5418 H         1 <0>         0.1347
     49 H19        -0.9043    4.5379   -1.5876 H         1 <0>         0.1139
     50 H20        -2.6007    4.0184   -1.3063 H         1 <0>         0.1012
     51 H21        -1.5900    3.1654   -2.5218 H         1 <0>         0.0922
     52 H22         1.0960    4.1911   -0.7488 H         1 <0>         0.4692
     53 H23         5.8759    3.2406   -1.8287 H         1 <0>         0.1475
     54 H24         5.6235    0.6835   -2.0542 H         1 <0>         0.1964
     55 H25         4.8435    6.7007   -1.2665 H         1 <0>         0.4322
     56 H26         5.7895    5.0868   -1.6279 H         1 <0>         0.4249
     57 H27        -1.6212    0.8407    0.3343 H         1 <0>         0.4521
@<TRIPOS>BOND
     1    1    2 1
     2    1   32 1
     3    1   33 1
     4    1   34 1
     5    2    7 ar
     6    2    3 ar
     7    3    4 ar
     8    3   35 1
     9    4    5 ar
    10    4   36 1
    11    5    6 ar
    12    5    9 1
    13    6    7 ar
    14    6    8 1
    15    7   37 1
    16    8   38 1
    17    8   39 1
    18    8   40 1
    19    9   10 2
    20    9   11 2
    21    9   12 1
    22   12   17 1
    23   12   13 1
    24   13   14 1
    25   13   41 1
    26   13   42 1
    27   14   15 1
    28   14   43 1
    29   14   44 1
    30   15   16 1
    31   15   18 1
    32   15   57 1
    33   16   17 1
    34   16   45 1
    35   16   46 1
    36   17   47 1
    37   17   48 1
    38   18   19 1
    39   18   20 1
    40   18   21 1
    41   20   49 1
    42   20   50 1
    43   20   51 1
    44   21   22 2
    45   21   23 am
    46   23   24 1
    47   23   52 1
    48   24   28 1
    49   24   25 2
    50   25   26 1
    51   25   29 1
    52   26   27 2
    53   26   53 1
    54   27   28 1
    55   27   54 1
    56   29   30 2
    57   29   31 am
    58   31   55 1
    59   31   56 1
@<TRIPOS>MOLECULE
ZINC39684189
   80    84     0     0     0
SMALL
USER_CHARGES

@<TRIPOS>ATOM
      1 C1         -2.7520   -3.8781    2.1705 C.3       1 <0>        -0.1170
      2 C2         -3.3718   -3.7108    0.8071 C.ar      1 <0>        -0.0877
      3 C3         -3.6311   -4.8154    0.0253 C.ar      1 <0>        -0.1028
      4 C4         -4.2012   -4.6746   -1.2322 C.ar      1 <0>        -0.1362
      5 C5         -4.5159   -3.4363   -1.7170 C.ar      1 <0>        -0.0838
      6 C6         -4.2623   -2.3035   -0.9417 C.ar      1 <0>        -0.0960
      7 C7         -4.4661   -0.8666   -1.1411 C.2       1 <0>        -0.1859
      8 C8         -4.0235   -0.2502   -0.0338 C.2       1 <0>         0.0703
      9 N1         -3.5528   -1.1746    0.8585 N.pl3     1 <0>        -0.5902
     10 C9         -3.6893   -2.4413    0.3360 C.ar      1 <0>         0.0970
     11 C10        -5.0596   -0.2059   -2.3585 C.3       1 <0>        -0.0469
     12 C11        -6.5853   -0.2000   -2.2428 C.3       1 <0>         0.1202
     13 N2         -7.1623    0.4424   -3.4263 N.am      1 <0>        -0.7287
     14 C12        -8.4996    0.5617   -3.5437 C.2       1 <0>         0.5182
     15 O1         -9.2253    0.1372   -2.6696 O.2       1 <0>        -0.5184
     16 C13        -9.0931    1.2225   -4.7611 C.3       1 <0>        -0.1132
     17 H1         -8.4349    2.0129   -5.1219 H         1 <0>         0.1132
     18 C14       -10.4914    1.7936   -4.4354 C.3       1 <0>         0.1083
     19 N3        -11.2890    1.5525   -5.6608 N.am      1 <0>        -0.6242
     20 C15       -10.8592    0.2108   -6.1225 C.3       1 <0>         0.1080
     21 C16        -9.3389    0.1835   -5.8681 C.3       1 <0>        -0.0721
     22 C17        -8.9082   -1.2023   -5.3973 C.3       1 <0>        -0.1472
     23 C18        -9.1075   -2.2078   -6.5348 C.3       1 <0>        -0.0077
     24 N4         -8.3140   -1.7960   -7.6991 N.4       1 <0>        -0.5043
     25 C19        -8.7968   -0.5043   -8.2025 C.3       1 <0>        -0.0111
     26 C20        -8.5843    0.5732   -7.1355 C.3       1 <0>        -0.1331
     27 C21       -12.1994    2.3688   -6.2278 C.2       1 <0>         0.5338
     28 O2        -12.7745    2.0261   -7.2391 O.2       1 <0>        -0.5108
     29 C22       -12.5026    3.7072   -5.6052 C.3       1 <0>         0.1068
     30 H2        -12.3530    3.6708   -4.5261 H         1 <0>         0.0933
     31 C23       -11.6322    4.8116   -6.2383 C.3       1 <0>        -0.1123
     32 C24       -12.6392    5.7527   -6.8599 C.2       1 <0>         0.0380
     33 N5        -13.8152    5.3214   -6.6520 N.2       1 <0>        -0.2076
     34 N6        -13.8762    4.1299   -5.9252 N.pl3     1 <0>        -0.5181
     35 C25       -15.0990    3.4177   -5.5461 C.3       1 <0>         0.2263
     36 C26       -14.7368    2.2023   -4.6902 C.3       1 <0>        -0.1567
     37 C27       -16.0066    4.3533   -4.7450 C.3       1 <0>        -0.1567
     38 C28       -15.8307    2.9536   -6.8071 C.3       1 <0>        -0.1578
     39 C29       -12.2985    7.0131   -7.6126 C.3       1 <0>        -0.0729
     40 H3         -3.5389   -3.9983    2.9151 H         1 <0>         0.0720
     41 H4         -2.1118   -4.7603    2.1728 H         1 <0>         0.0739
     42 H5         -2.1569   -2.9968    2.4097 H         1 <0>         0.0587
     43 H6         -3.3880   -5.8007    0.3948 H         1 <0>         0.1271
     44 H7         -4.3973   -5.5507   -1.8326 H         1 <0>         0.1220
     45 H8         -4.9590   -3.3344   -2.6967 H         1 <0>         0.1138
     46 H9         -4.0366    0.8175    0.1285 H         1 <0>         0.1708
     47 H10        -3.1815   -0.9686    1.7305 H         1 <0>         0.4189
     48 H11        -4.6966    0.8195   -2.4287 H         1 <0>         0.0767
     49 H12        -4.7651   -0.7575   -3.2513 H         1 <0>         0.0729
     50 H13        -6.9483   -1.2254   -2.1726 H         1 <0>         0.0727
     51 H14        -6.8798    0.3516   -1.3500 H         1 <0>         0.0732
     52 H15        -6.5818    0.7819   -4.1254 H         1 <0>         0.3993
     53 H16       -10.9289    1.2668   -3.5873 H         1 <0>         0.1018
     54 H17       -10.4267    2.8618   -4.2280 H         1 <0>         0.0919
     55 H18       -11.3566   -0.5679   -5.5443 H         1 <0>         0.0835
     56 H19       -11.0683    0.0891   -7.1853 H         1 <0>         0.0878
     57 H20        -7.8564   -1.1791   -5.1122 H         1 <0>         0.0990
     58 H21        -9.5117   -1.4990   -4.5395 H         1 <0>         0.1246
     59 H22        -8.7849   -3.1959   -6.2067 H         1 <0>         0.1397
     60 H23       -10.1621   -2.2426   -6.8081 H         1 <0>         0.1326
     61 H24        -7.3451   -1.7100   -7.4308 H         1 <0>         0.4278
     62 H25        -8.2452   -0.2367   -9.1037 H         1 <0>         0.1398
     63 H26        -9.8588   -0.5796   -8.4360 H         1 <0>         0.1332
     64 H27        -8.9594    1.5283   -7.5031 H         1 <0>         0.1172
     65 H28        -7.5207    0.6606   -6.9133 H         1 <0>         0.0971
     66 H29       -11.0495    5.3253   -5.4735 H         1 <0>         0.1017
     67 H30       -10.9776    4.3923   -7.0023 H         1 <0>         0.0887
     68 H31       -14.1202    2.5206   -3.8496 H         1 <0>         0.0591
     69 H32       -15.6485    1.7366   -4.3161 H         1 <0>         0.0808
     70 H33       -14.1836    1.4838   -5.2950 H         1 <0>         0.0580
     71 H34       -16.2647    5.2192   -5.3548 H         1 <0>         0.0675
     72 H35       -16.9164    3.8234   -4.4630 H         1 <0>         0.0676
     73 H36       -15.4853    4.6840   -3.8467 H         1 <0>         0.0562
     74 H37       -15.2238    2.2125   -7.3273 H         1 <0>         0.0634
     75 H38       -16.7871    2.5102   -6.5298 H         1 <0>         0.0622
     76 H39       -16.0025    3.8074   -7.4625 H         1 <0>         0.0635
     77 H40       -12.1749    6.7823   -8.6706 H         1 <0>         0.0774
     78 H41       -13.1033    7.7380   -7.4904 H         1 <0>         0.0795
     79 H42       -11.3709    7.4306   -7.2210 H         1 <0>         0.0778
     80 H43        -8.3988   -2.4914   -8.4253 H         1 <0>         0.4344
@<TRIPOS>BOND
     1    1   40 1
     2    1   41 1
     3    1   42 1
     4    1    2 1
     5    2   10 ar
     6    2    3 ar
     7    3   43 1
     8    3    4 ar
     9    4   44 1
    10    4    5 ar
    11    5   45 1
    12    5    6 ar
    13    6   10 ar
    14    6    7 1
    15    7   11 1
    16    7    8 2
    17    8    9 1
    18    8   46 1
    19    9   47 1
    20    9   10 1
    21   11   12 1
    22   11   48 1
    23   11   49 1
    24   12   13 1
    25   12   50 1
    26   12   51 1
    27   13   14 am
    28   13   52 1
    29   14   15 2
    30   14   16 1
    31   16   17 1
    32   16   21 1
    33   16   18 1
    34   18   19 1
    35   18   53 1
    36   18   54 1
    37   19   20 1
    38   19   27 am
    39   20   21 1
    40   20   55 1
    41   20   56 1
    42   21   26 1
    43   21   22 1
    44   22   23 1
    45   22   57 1
    46   22   58 1
    47   23   24 1
    48   23   59 1
    49   23   60 1
    50   24   25 1
    51   24   61 1
    52   24   80 1
    53   25   26 1
    54   25   62 1
    55   25   63 1
    56   26   64 1
    57   26   65 1
    58   27   28 2
    59   27   29 1
    60   29   30 1
    61   29   34 1
    62   29   31 1
    63   31   32 1
    64   31   66 1
    65   31   67 1
    66   32   33 2
    67   32   39 1
    68   33   34 1
    69   34   35 1
    70   35   36 1
    71   35   37 1
    72   35   38 1
    73   36   68 1
    74   36   69 1
    75   36   70 1
    76   37   71 1
    77   37   72 1
    78   37   73 1
    79   38   74 1
    80   38   75 1
    81   38   76 1
    82   39   77 1
    83   39   78 1
    84   39   79 1
@<TRIPOS>MOLECULE
ZINC44695567
   72    77     0     0     0
SMALL
USER_CHARGES

@<TRIPOS>ATOM
      1 C1         -0.0347    1.4631   -0.3813 C.3       1 <0>        -0.1086
      2 C2          0.0273   -0.0224   -0.1352 C.2       1 <0>         0.1434
      3 C3         -1.0355   -0.8319    0.1392 C.2       1 <0>        -0.3077
      4 C4         -0.5014   -2.1924    0.3034 C.2       1 <0>         0.1812
      5 N1          0.7930   -2.1169    0.1249 N.2       1 <0>        -0.2933
      6 O1          1.1317   -0.7731   -0.1541 O.3       1 <0>        -0.0678
      7 C5         -1.2807   -3.4161    0.6124 C.ar      1 <0>        -0.0445
      8 C6         -2.3961   -3.3434    1.4448 C.ar      1 <0>        -0.0945
      9 C7         -3.1177   -4.4851    1.7284 C.ar      1 <0>        -0.1205
     10 C8         -2.7355   -5.7000    1.1886 C.ar      1 <0>        -0.0955
     11 C9         -1.6290   -5.7781    0.3621 C.ar      1 <0>        -0.1144
     12 C10        -0.9036   -4.6418    0.0667 C.ar      1 <0>        -0.0772
     13 C11        -2.4460   -0.4227    0.2497 C.2       1 <0>         0.6364
     14 O2         -3.1387   -0.3523   -0.7475 O.2       1 <0>        -0.5139
     15 N2         -2.9692   -0.1263    1.4559 N.am      1 <0>        -0.6131
     16 C12        -2.2669   -0.0600    2.7591 C.3       1 <0>         0.1131
     17 C13        -2.8915    1.1569    3.4777 C.3       1 <0>        -0.1147
     18 H1         -2.9924    0.9570    4.5445 H         1 <0>         0.1195
     19 C14        -4.2765    1.3260    2.8312 C.3       1 <0>        -0.0728
     20 C15        -4.3760    0.2136    1.7775 C.3       1 <0>         0.1054
     21 C16        -4.3829    2.6917    2.1593 C.3       1 <0>        -0.1468
     22 C17        -5.7877    2.8589    1.5734 C.3       1 <0>        -0.0096
     23 N3         -6.7841    2.7393    2.6447 N.4       1 <0>        -0.5046
     24 C18        -6.7377    1.3913    3.2238 C.3       1 <0>        -0.0105
     25 C19        -5.3729    1.1618    3.8793 C.3       1 <0>        -0.1337
     26 C20        -2.0510    2.3874    3.2527 C.2       1 <0>         0.5182
     27 O3         -1.3533    2.4728    2.2644 O.2       1 <0>        -0.5197
     28 N4         -2.0746    3.3929    4.1498 N.am      1 <0>        -0.7285
     29 C21        -1.2576    4.5891    3.9311 C.3       1 <0>         0.1212
     30 C22        -1.4669    5.5682    5.0880 C.3       1 <0>        -0.0472
     31 C23        -0.6264    6.7987    4.8630 C.2       1 <0>        -0.1858
     32 C24         0.6020    7.0273    5.3537 C.2       1 <0>         0.0704
     33 N5          1.0504    8.2512    4.9374 N.pl3     1 <0>        -0.5921
     34 H2          1.9115    8.6359    5.1642 H         1 <0>         0.4201
     35 C25         0.0972    8.8555    4.1486 C.ar      1 <0>         0.0951
     36 C26        -0.9924    7.9694    4.0621 C.ar      1 <0>        -0.0998
     37 C27        -2.1168    8.3191    3.3124 C.ar      1 <0>        -0.0776
     38 C28        -2.1518    9.5207    2.6623 C.ar      1 <0>        -0.1414
     39 C29        -1.0780   10.3964    2.7411 C.ar      1 <0>        -0.0978
     40 C30         0.0379   10.0753    3.4830 C.ar      1 <0>        -0.1242
     41 H3          0.9763    1.8562   -0.4884 H         1 <0>         0.0914
     42 H4         -0.5985    1.6570   -1.2937 H         1 <0>         0.0985
     43 H5         -0.5268    1.9505    0.4604 H         1 <0>         0.1241
     44 H6         -2.6950   -2.3955    1.8673 H         1 <0>         0.1240
     45 H7         -3.9822   -4.4300    2.3733 H         1 <0>         0.1292
     46 H8         -3.3029   -6.5910    1.4135 H         1 <0>         0.1318
     47 H9         -1.3346   -6.7293   -0.0560 H         1 <0>         0.1352
     48 H10        -0.0427   -4.7030   -0.5826 H         1 <0>         0.1323
     49 H11        -2.4420   -0.9707    3.3319 H         1 <0>         0.0903
     50 H12        -1.1986    0.0952    2.6077 H         1 <0>         0.0976
     51 H13        -4.8922    0.5773    0.8891 H         1 <0>         0.0913
     52 H14        -4.8919   -0.6533    2.1903 H         1 <0>         0.0873
     53 H15        -4.2001    3.4746    2.8954 H         1 <0>         0.0974
     54 H16        -3.6446    2.7627    1.3606 H         1 <0>         0.1229
     55 H17        -5.8721    3.8404    1.1069 H         1 <0>         0.1388
     56 H18        -5.9638    2.0855    0.8258 H         1 <0>         0.1346
     57 H19        -6.5866    3.4196    3.3633 H         1 <0>         0.4276
     58 H20        -7.5222    1.2911    3.9738 H         1 <0>         0.1403
     59 H21        -6.8914    0.6527    2.4370 H         1 <0>         0.1331
     60 H22        -5.3328    0.1542    4.2931 H         1 <0>         0.1224
     61 H23        -5.2255    1.8896    4.6772 H         1 <0>         0.0984
     62 H24        -2.6326    3.3246    4.9403 H         1 <0>         0.3991
     63 H25        -0.2061    4.3065    3.8799 H         1 <0>         0.0728
     64 H26        -1.5521    5.0641    2.9953 H         1 <0>         0.0721
     65 H27        -2.5184    5.8508    5.1392 H         1 <0>         0.0727
     66 H28        -1.1724    5.0932    6.0238 H         1 <0>         0.0766
     67 H29         1.1544    6.3462    5.9840 H         1 <0>         0.1707
     68 H30        -2.9558    7.6423    3.2460 H         1 <0>         0.1141
     69 H31        -3.0220    9.7908    2.0824 H         1 <0>         0.1220
     70 H32        -1.1202   11.3421    2.2212 H         1 <0>         0.1279
     71 H33         0.8688   10.7630    3.5371 H         1 <0>         0.1228
     72 H34        -7.7041    2.9103    2.2673 H         1 <0>         0.4345
@<TRIPOS>BOND
     1    1    2 1
     2    1   41 1
     3    1   42 1
     4    1   43 1
     5    2    6 1
     6    2    3 2
     7    3    4 1
     8    3   13 1
     9    4    5 2
    10    4    7 1
    11    5    6 1
    12    7   12 ar
    13    7    8 ar
    14    8    9 ar
    15    8   44 1
    16    9   10 ar
    17    9   45 1
    18   10   11 ar
    19   10   46 1
    20   11   12 ar
    21   11   47 1
    22   12   48 1
    23   13   14 2
    24   13   15 am
    25   15   20 1
    26   15   16 1
    27   16   17 1
    28   16   49 1
    29   16   50 1
    30   17   18 1
    31   17   19 1
    32   17   26 1
    33   19   25 1
    34   19   20 1
    35   19   21 1
    36   20   51 1
    37   20   52 1
    38   21   22 1
    39   21   53 1
    40   21   54 1
    41   22   23 1
    42   22   55 1
    43   22   56 1
    44   23   24 1
    45   23   57 1
    46   23   72 1
    47   24   25 1
    48   24   58 1
    49   24   59 1
    50   25   60 1
    51   25   61 1
    52   26   27 2
    53   26   28 am
    54   28   29 1
    55   28   62 1
    56   29   30 1
    57   29   63 1
    58   29   64 1
    59   30   31 1
    60   30   65 1
    61   30   66 1
    62   31   36 1
    63   31   32 2
    64   32   33 1
    65   32   67 1
    66   33   34 1
    67   33   35 1
    68   35   40 ar
    69   35   36 ar
    70   36   37 ar
    71   37   38 ar
    72   37   68 1
    73   38   39 ar
    74   38   69 1
    75   39   40 ar
    76   39   70 1
    77   40   71 1
@<TRIPOS>MOLECULE
ZINC63843854
   48    50     0     0     0
SMALL
USER_CHARGES

@<TRIPOS>ATOM
      1 C1         -0.0184    1.5028    0.0103 C.3       1 <0>        -0.1777
      2 C2          0.0021   -0.0041    0.0020 C.2       1 <0>         0.5151
      3 O1          0.0203   -0.6160    1.0489 O.2       1 <0>        -0.5048
      4 N1          0.0001   -0.6716   -1.1688 N.am      1 <0>        -0.7289
      5 C3          0.0199   -2.1365   -1.1769 C.3       1 <0>         0.1553
      6 H1          0.0151   -2.4942   -2.2065 H         1 <0>         0.1257
      7 C4          1.2828   -2.6333   -0.4703 C.3       1 <0>        -0.1122
      8 C5          2.4971   -2.2137   -1.2580 C.2       1 <0>         0.0695
      9 C6          3.2582   -1.1143   -1.0548 C.ar      1 <0>        -0.1621
     10 C7          3.1854   -0.0212   -0.0779 C.ar      1 <0>        -0.0157
     11 C8          4.1112    0.9636   -0.1253 C.ar      1 <0>        -0.1513
     12 C9          5.1356    0.9668   -1.0819 C.ar      1 <0>         0.0568
     13 C10         5.2680   -0.0026   -2.0118 C.ar      1 <0>        -0.2103
     14 C11         4.3499   -1.0879   -2.0543 C.ar      1 <0>         0.3287
     15 N2          4.2669   -2.1306   -2.8447 N.pl3     1 <0>        -0.5853
     16 C12         3.1153   -2.9403   -2.4315 C.3       1 <0>         0.0600
     17 C13        -1.1968   -2.6593   -0.4576 C.2       1 <0>         0.4984
     18 O2         -1.7997   -1.9432    0.3135 O.2       1 <0>        -0.4891
     19 N3         -1.6148   -3.9226   -0.6713 N.am      1 <0>        -0.5159
     20 N4         -2.7460   -4.4087   -0.0026 N.am      1 <0>        -0.5199
     21 C14        -3.1641   -5.6720   -0.2163 C.2       1 <0>         0.5574
     22 O3         -2.5597   -6.3897   -0.9891 O.2       1 <0>        -0.5039
     23 C15        -4.3572   -6.1848    0.4891 C.ar      1 <0>        -0.1152
     24 C16        -5.0571   -5.3614    1.3731 C.ar      1 <0>        -0.0790
     25 C17        -6.1700   -5.8458    2.0277 C.ar      1 <0>        -0.1097
     26 C18        -6.5939   -7.1455    1.8109 C.ar      1 <0>        -0.0770
     27 C19        -5.9059   -7.9674    0.9372 C.ar      1 <0>        -0.0973
     28 C20        -4.7933   -7.4934    0.2701 C.ar      1 <0>        -0.0382
     29 Br1        -3.8579   -8.6160   -0.9302 Br        1 <0>        -0.0046
     30 H2          1.0042    1.8801    0.0026 H         1 <0>         0.0931
     31 H3         -0.5455    1.8639   -0.8728 H         1 <0>         0.0848
     32 H4         -0.5286    1.8543    0.9071 H         1 <0>         0.1033
     33 H5         -0.0145   -0.1822   -2.0061 H         1 <0>         0.4128
     34 H6          1.3324   -2.2034    0.5301 H         1 <0>         0.1389
     35 H7          1.2546   -3.7205   -0.3977 H         1 <0>         0.1264
     36 H8          2.4040   -0.0034    0.6674 H         1 <0>         0.1586
     37 H9          4.0595    1.7689    0.5925 H         1 <0>         0.1583
     38 H10         5.8481    1.7784   -1.0749 H         1 <0>         0.1616
     39 H11         6.0753    0.0463   -2.7276 H         1 <0>         0.1610
     40 H12         3.4423   -3.9348   -2.1277 H         1 <0>         0.1764
     41 H13         2.3976   -3.0134   -3.2486 H         1 <0>         0.1736
     42 H14        -1.1326   -4.4953   -1.2880 H         1 <0>         0.4309
     43 H15        -3.2282   -3.8360    0.6141 H         1 <0>         0.4322
     44 H16        -4.7274   -4.3472    1.5441 H         1 <0>         0.1337
     45 H17        -6.7120   -5.2096    2.7117 H         1 <0>         0.1414
     46 H18        -7.4660   -7.5195    2.3266 H         1 <0>         0.1430
     47 H19        -6.2418   -8.9806    0.7728 H         1 <0>         0.1452
     48 H20         4.8687   -2.3347   -3.5776 H         1 <0>         0.4562
@<TRIPOS>BOND
     1    1    2 1
     2    1   30 1
     3    1   31 1
     4    1   32 1
     5    2    3 2
     6    2    4 am
     7    4    5 1
     8    4   33 1
     9    5    6 1
    10    5    7 1
    11    5   17 1
    12    7    8 1
    13    7   34 1
    14    7   35 1
    15    8   16 1
    16    8    9 2
    17    9   14 ar
    18    9   10 ar
    19   10   11 ar
    20   10   36 1
    21   11   12 ar
    22   11   37 1
    23   12   13 ar
    24   12   38 1
    25   13   14 ar
    26   13   39 1
    27   14   15 2
    28   15   16 1
    29   15   48 1
    30   16   40 1
    31   16   41 1
    32   17   18 2
    33   17   19 am
    34   19   20 1
    35   19   42 1
    36   20   21 am
    37   20   43 1
    38   21   22 2
    39   21   23 1
    40   23   28 ar
    41   23   24 ar
    42   24   25 ar
    43   24   44 1
    44   25   26 ar
    45   25   45 1
    46   26   27 ar
    47   26   46 1
    48   27   28 ar
    49   27   47 1
    50   28   29 1
@<TRIPOS>MOLECULE
ZINC13628531
   49    52     0     0     0
SMALL
USER_CHARGES
1-amino-5-(4-methyl-1-piperidyl)-6,7,8,9-tetrahydrothieno[5,4-c]isoquinoline-2-carboxamide
@<TRIPOS>ATOM
      1 C1         -0.9836    3.7349    2.6036 C.3       1 <0>        -0.1509
      2 C2         -0.2931    3.0210    1.4398 C.3       1 <0>        -0.0989
      3 C3         -1.0486    1.7306    1.1104 C.3       1 <0>        -0.1120
      4 C4         -0.3895    1.0522   -0.0926 C.3       1 <0>         0.0327
      5 N1         -0.4152    1.9629   -1.2443 N.pl3     1 <0>        -0.4873
      6 C5          0.3439    3.1893   -0.9684 C.3       1 <0>         0.0504
      7 C6         -0.2931    3.9313    0.2086 C.3       1 <0>        -0.1162
      8 C7          0.0559    1.3330   -2.3867 C.ar      1 <0>         0.4108
      9 C8         -0.5357    1.6159   -3.6285 C.ar      1 <0>        -0.0917
     10 C9         -0.0761    1.0081   -4.7486 C.ar      1 <0>         0.1211
     11 C10         0.9990    0.0795   -4.6481 C.ar      1 <0>        -0.1443
     12 C11         1.6333   -0.6809   -5.7128 C.2       1 <0>         0.2974
     13 C12         2.6683   -1.5299   -5.3828 C.2       1 <0>        -0.3087
     14 S1          2.8192   -1.3286   -3.6185 S.3       1 <0>         0.2255
     15 C13         1.5261   -0.1403   -3.3578 C.ar      1 <0>         0.0827
     16 C14         3.4288   -2.3613   -6.2396 C.2       1 <0>         0.6152
     17 O1          3.1946   -2.3806   -7.4347 O.2       1 <0>        -0.5286
     18 N2          4.4119   -3.1314   -5.7329 N.am      1 <0>        -0.8447
     19 N3          1.2075   -0.5556   -7.0278 N.pl3     1 <0>        -0.8228
     20 C15        -0.6444    1.2636   -6.1177 C.3       1 <0>        -0.1267
     21 C16        -2.0214    1.9174   -6.0135 C.3       1 <0>        -0.1259
     22 C17        -1.9138    3.1183   -5.0659 C.3       1 <0>        -0.1293
     23 C18        -1.6808    2.5958   -3.6498 C.3       1 <0>        -0.0682
     24 H1         -2.0111    3.9709    2.3269 H         1 <0>         0.0611
     25 H2         -0.9831    3.0862    3.4795 H         1 <0>         0.0614
     26 H3         -0.4485    4.6563    2.8336 H         1 <0>         0.0619
     27 H4          0.7339    2.7826    1.7165 H         1 <0>         0.0728
     28 H5         -2.0857    1.9666    0.8721 H         1 <0>         0.0872
     29 H6         -1.0155    1.0603    1.9694 H         1 <0>         0.0884
     30 H7         -0.9336    0.1403   -0.3385 H         1 <0>         0.0982
     31 H8          0.6435    0.8041    0.1512 H         1 <0>         0.0497
     32 H9          1.3735    2.9311   -0.7206 H         1 <0>         0.0595
     33 H10         0.3323    3.8297   -1.8504 H         1 <0>         0.1004
     34 H11         0.2797    4.8335    0.4231 H         1 <0>         0.0897
     35 H12        -1.3184    4.2020   -0.0438 H         1 <0>         0.0865
     36 H13         4.5984   -3.1160   -4.7812 H         1 <0>         0.3988
     37 H14         4.9331   -3.7011   -6.3201 H         1 <0>         0.4177
     38 H15         0.8111    0.2758   -7.3320 H         1 <0>         0.4095
     39 H16         1.3062   -1.2994   -7.6425 H         1 <0>         0.4295
     40 H17         0.0263    1.9236   -6.6679 H         1 <0>         0.1176
     41 H18        -0.7349    0.3177   -6.6517 H         1 <0>         0.1148
     42 H19        -2.3436    2.2545   -6.9987 H         1 <0>         0.0930
     43 H20        -2.7398    1.1998   -5.6170 H         1 <0>         0.0798
     44 H21        -1.0773    3.7492   -5.3665 H         1 <0>         0.0747
     45 H22        -2.8382    3.6949   -5.0976 H         1 <0>         0.0924
     46 H23        -2.5848    2.1000   -3.2963 H         1 <0>         0.1021
     47 H24        -1.4498    3.4330   -2.9912 H         1 <0>         0.0989
     48 N4          1.0906    0.4645   -2.2267 N.ar      1 <0>        -0.4929
     49 H25         1.5135    0.2797   -1.3095 H         1 <0>         0.4676
@<TRIPOS>BOND
     1    1    2 1
     2    1   24 1
     3    1   25 1
     4    1   26 1
     5    2    7 1
     6    2    3 1
     7    2   27 1
     8    3    4 1
     9    3   28 1
    10    3   29 1
    11    4    5 1
    12    4   30 1
    13    4   31 1
    14    5    6 1
    15    5    8 1
    16    6    7 1
    17    6   32 1
    18    6   33 1
    19    7   34 1
    20    7   35 1
    21    8    9 ar
    22    8   48 ar
    23    9   23 1
    24    9   10 ar
    25   10   11 ar
    26   10   20 1
    27   11   15 ar
    28   11   12 1
    29   12   13 2
    30   12   19 1
    31   13   14 1
    32   13   16 1
    33   14   15 1
    34   15   48 ar
    35   16   17 2
    36   16   18 am
    37   18   36 1
    38   18   37 1
    39   19   38 1
    40   19   39 1
    41   20   21 1
    42   20   40 1
    43   20   41 1
    44   21   22 1
    45   21   42 1
    46   21   43 1
    47   22   23 1
    48   22   44 1
    49   22   45 1
    50   23   46 1
    51   23   47 1
    52   48   49 1
@<TRIPOS>MOLECULE
ZINC40681188
   44    47     0     0     0
SMALL
USER_CHARGES

@<TRIPOS>ATOM
      1 C1         -2.3622    0.9395    0.3849 C.3       1 <0>        -0.1550
      2 C2         -1.7157   -0.4175    0.2770 C.ar      1 <0>         0.2471
      3 C3         -1.7709   -1.1002   -0.9353 C.ar      1 <0>        -0.1807
      4 C4         -1.1899   -2.3321   -1.0512 C.ar      1 <0>         0.0480
      5 C5         -0.5484   -2.8717    0.0764 C.ar      1 <0>        -0.1226
      6 C6         -0.5283   -2.1248    1.2801 C.ar      1 <0>         0.1605
      7 N1         -1.1115   -0.9220    1.3257 N.ar      1 <0>        -0.4644
      8 C7          0.1123   -2.6612    2.4097 C.ar      1 <0>        -0.1751
      9 C8          0.7051   -3.8856    2.3409 C.ar      1 <0>         0.0003
     10 C9          0.6912   -4.6271    1.1645 C.ar      1 <0>        -0.1290
     11 C10         0.0735   -4.1371    0.0320 C.ar      1 <0>         0.2367
     12 N2          0.0629   -4.8851   -1.1427 N.pl3     1 <0>        -0.6412
     13 C11         0.1874   -6.2687   -1.0870 C.ar      1 <0>         0.3690
     14 C12         0.3031   -7.0182   -2.2598 C.ar      1 <0>         0.0485
     15 C13         0.4254   -8.4042   -2.1468 C.ar      1 <0>         0.4062
     16 N3          0.4272   -8.9544   -0.9350 N.ar      1 <0>        -0.5327
     17 C14         0.3158   -8.2107    0.1468 C.ar      1 <0>         0.3283
     18 N4          0.2038   -6.8992    0.0848 N.ar      1 <0>        -0.5483
     19 N5          0.5432   -9.1978   -3.2832 N.pl3     1 <0>        -0.6072
     20 C15         0.6646  -10.5792   -3.1580 C.2       1 <0>         0.3374
     21 C16         0.6774  -11.3070   -1.9464 C.2       1 <0>        -0.2878
     22 C17         0.8099  -12.6113   -2.2445 C.2       1 <0>         0.0803
     23 O1          0.8801  -12.7310   -3.5797 O.3       1 <0>        -0.0687
     24 N6          0.7816  -11.4349   -4.1417 N.2       1 <0>        -0.3597
     25 C18         0.8693  -13.7432   -1.2514 C.3       1 <0>        -0.0904
     26 N7          0.2960   -6.3951   -3.5174 N.pl3     1 <0>        -0.8690
     27 H1         -1.6383    1.7091    0.1169 H         1 <0>         0.1235
     28 H2         -3.2146    0.9908   -0.2925 H         1 <0>         0.1221
     29 H3         -2.7012    1.1001    1.4083 H         1 <0>         0.1023
     30 H4         -2.2724   -0.6570   -1.7830 H         1 <0>         0.1845
     31 H5         -1.2234   -2.8758   -1.9837 H         1 <0>         0.1644
     32 H6          0.1351   -2.1020    3.3333 H         1 <0>         0.1548
     33 H7          1.1948   -4.2877    3.2155 H         1 <0>         0.1585
     34 H8          1.1688   -5.5954    1.1369 H         1 <0>         0.1778
     35 H9         -0.0313   -4.4407   -1.9998 H         1 <0>         0.4190
     36 H10         0.3209   -8.6903    1.1144 H         1 <0>         0.2121
     37 H11         0.5407   -8.7889   -4.1628 H         1 <0>         0.4264
     38 H12         0.5954  -10.8884   -0.9542 H         1 <0>         0.1922
     39 H13        -0.1388  -14.1096   -1.0573 H         1 <0>         0.0963
     40 H14         1.4777  -14.5513   -1.6575 H         1 <0>         0.0884
     41 H15         1.3120  -13.3875   -0.3210 H         1 <0>         0.0975
     42 H16         0.2099   -5.4310   -3.5804 H         1 <0>         0.3980
     43 H17         0.3771   -6.9286   -4.3234 H         1 <0>         0.4054
     44 H18        -1.0906   -0.4145    2.1521 H         1 <0>         0.4462
@<TRIPOS>BOND
     1    1    2 1
     2    1   27 1
     3    1   28 1
     4    1   29 1
     5    2    7 ar
     6    2    3 ar
     7    3    4 ar
     8    3   30 1
     9    4    5 ar
    10    4   31 1
    11    5   11 ar
    12    5    6 ar
    13    6    7 ar
    14    6    8 ar
    15    7   44 1
    16    8    9 ar
    17    8   32 1
    18    9   10 ar
    19    9   33 1
    20   10   11 ar
    21   10   34 1
    22   11   12 1
    23   12   13 1
    24   12   35 1
    25   13   18 ar
    26   13   14 ar
    27   14   15 ar
    28   14   26 1
    29   15   16 ar
    30   15   19 1
    31   16   17 ar
    32   17   18 ar
    33   17   36 1
    34   19   20 1
    35   19   37 1
    36   20   24 2
    37   20   21 1
    38   21   22 2
    39   21   38 1
    40   22   23 1
    41   22   25 1
    42   23   24 1
    43   25   39 1
    44   25   40 1
    45   25   41 1
    46   26   42 1
    47   26   43 1
@<TRIPOS>MOLECULE
ZINC51999825
   39    41     0     0     0
SMALL
USER_CHARGES

@<TRIPOS>ATOM
      1 C1         -0.7548   -3.0290   -2.1908 C.ar      1 <0>        -0.0270
      2 C2         -0.3433   -1.8288   -2.6839 C.ar      1 <0>        -0.1294
      3 C3          0.8847   -1.2866   -2.2671 C.ar      1 <0>         0.1300
      4 C4          1.6734   -2.0060   -1.3361 C.ar      1 <0>        -0.0623
      5 C5          1.2193   -3.2397   -0.8477 C.ar      1 <0>        -0.0364
      6 C6          0.0232   -3.7346   -1.2749 C.ar      1 <0>        -0.0827
      7 Br1        -0.5881   -5.3984   -0.6163 Br        1 <0>         0.0020
      8 C7          2.9078   -1.4602   -0.9175 C.ar      1 <0>         0.2656
      9 C8          3.2887   -0.2321   -1.4467 C.ar      1 <0>         0.1496
     10 C9          2.4549    0.4122   -2.3588 C.ar      1 <0>         0.1337
     11 N1          1.3107   -0.1090   -2.7367 N.ar      1 <0>        -0.4365
     12 N2          4.5038    0.3547   -1.0648 N.pl3     1 <0>        -0.8421
     13 N3          3.7162   -2.1302   -0.0045 N.pl3     1 <0>        -0.7641
     14 C10         4.9545   -2.7707   -0.4546 C.3       1 <0>         0.1701
     15 H1          5.4335   -2.1460   -1.2084 H         1 <0>         0.0851
     16 C11         5.8989   -2.9481    0.7360 C.3       1 <0>        -0.1242
     17 C12         7.1922   -3.6171    0.2659 C.3       1 <0>        -0.1175
     18 C13         6.8685   -4.9857   -0.3367 C.3       1 <0>        -0.1207
     19 C14         5.9241   -4.8083   -1.5272 C.3       1 <0>        -0.1539
     20 C15         4.6309   -4.1393   -1.0571 C.3       1 <0>         0.0919
     21 H2          3.9580   -4.0130   -1.9053 H         1 <0>         0.0483
     22 O1          4.0029   -4.9585   -0.0689 O.3       1 <0>        -0.5556
     23 H3         -1.7013   -3.4388   -2.5110 H         1 <0>         0.1615
     24 H4         -0.9583   -1.2951   -3.3934 H         1 <0>         0.1634
     25 H5          1.8141   -3.7948   -0.1373 H         1 <0>         0.1733
     26 H6          2.7577    1.3660   -2.7650 H         1 <0>         0.2081
     27 H7          5.1238   -0.1359   -0.5027 H         1 <0>         0.4194
     28 H8          4.7243    1.2511   -1.3627 H         1 <0>         0.4156
     29 H9          3.4599   -2.1731    0.9301 H         1 <0>         0.4196
     30 H10         6.1295   -1.9731    1.1653 H         1 <0>         0.0702
     31 H11         5.4199   -3.5729    1.4898 H         1 <0>         0.0856
     32 H12         7.6712   -2.9923   -0.4879 H         1 <0>         0.0633
     33 H13         7.8650   -3.7434    1.1141 H         1 <0>         0.0751
     34 H14         7.7898   -5.4623   -0.6716 H         1 <0>         0.0682
     35 H15         6.3895   -5.6105    0.4172 H         1 <0>         0.0741
     36 H16         6.4031   -4.1835   -2.2811 H         1 <0>         0.0717
     37 H17         5.6935   -5.7833   -1.9565 H         1 <0>         0.0732
     38 H18         3.7691   -5.8430   -0.3819 H         1 <0>         0.3833
     39 H19         0.7602    0.3723   -3.3741 H         1 <0>         0.4506
@<TRIPOS>BOND
     1    1    6 ar
     2    1    2 ar
     3    1   23 1
     4    2    3 ar
     5    2   24 1
     6    3   11 ar
     7    3    4 ar
     8    4    5 ar
     9    4    8 ar
    10    5    6 ar
    11    5   25 1
    12    6    7 1
    13    8    9 ar
    14    8   13 1
    15    9   10 ar
    16    9   12 1
    17   10   11 ar
    18   10   26 1
    19   11   39 1
    20   12   27 1
    21   12   28 1
    22   13   14 1
    23   13   29 1
    24   14   15 1
    25   14   20 1
    26   14   16 1
    27   16   17 1
    28   16   30 1
    29   16   31 1
    30   17   18 1
    31   17   32 1
    32   17   33 1
    33   18   19 1
    34   18   34 1
    35   18   35 1
    36   19   20 1
    37   19   36 1
    38   19   37 1
    39   20   21 1
    40   20   22 1
    41   22   38 1
@<TRIPOS>MOLECULE
ZINC52094436
   32    34     0     0     0
SMALL
USER_CHARGES

@<TRIPOS>ATOM
      1 C1         -0.0167    1.3779    0.0096 C.ar      1 <0>        -0.0599
      2 C2          1.1703    2.0869    0.0021 C.ar      1 <0>        -0.1110
      3 C3          2.3786    1.4129   -0.0131 C.ar      1 <0>         0.1056
      4 C4          2.3974    0.0262   -0.0207 C.ar      1 <0>         0.0852
      5 C5          1.2078   -0.6805   -0.0132 C.ar      1 <0>        -0.1249
      6 C6          0.0021   -0.0041    0.0020 C.ar      1 <0>        -0.1301
      7 C7         -1.2931   -0.7745    0.0103 C.3       1 <0>         0.1400
      8 H1         -2.1023   -0.1284   -0.3300 H         1 <0>         0.1689
      9 C8         -1.5853   -1.2508    1.4098 C.ar      1 <0>        -0.1058
     10 C9         -1.2029   -2.5201    1.7983 C.ar      1 <0>        -0.1096
     11 C10        -1.4717   -2.9583    3.0856 C.ar      1 <0>         0.1267
     12 C11        -2.1280   -2.1149    3.9849 C.ar      1 <0>         0.1283
     13 C12        -2.5082   -0.8428    3.5868 C.ar      1 <0>        -0.0591
     14 C13        -2.2310   -0.4123    2.3029 C.ar      1 <0>        -0.0592
     15 Br1        -2.7420    1.3261    1.7615 Br        1 <0>        -0.0058
     16 N1         -2.2553   -2.8207    5.1790 N.am      1 <0>        -0.6349
     17 H2         -2.6719   -2.4920    5.9910 H         1 <0>         0.4476
     18 C14        -1.7022   -4.0371    5.0140 C.2       1 <0>         0.6874
     19 O1         -1.6464   -4.9030    5.8671 O.2       1 <0>        -0.5176
     20 N2         -1.2208   -4.1504    3.7618 N.am      1 <0>        -0.6377
     21 H3         -0.7755   -4.9292    3.3930 H         1 <0>         0.4441
     22 N3         -1.1802   -1.9318   -0.8873 N.4       1 <0>        -0.6349
     23 F1          3.5760   -0.6341   -0.0360 F         1 <0>        -0.1128
     24 F2          3.5389    2.1050   -0.0209 F         1 <0>        -0.1091
     25 H4         -0.9594    1.9045    0.0260 H         1 <0>         0.1539
     26 H5          1.1543    3.1668    0.0077 H         1 <0>         0.1641
     27 H6          1.2211   -1.7604   -0.0195 H         1 <0>         0.1431
     28 H7         -0.6959   -3.1699    1.1003 H         1 <0>         0.1364
     29 H8         -3.0159   -0.1880    4.2795 H         1 <0>         0.1594
     30 H9         -0.9845   -1.6129   -1.8244 H         1 <0>         0.4464
     31 H10        -0.4311   -2.5299   -0.5723 H         1 <0>         0.4302
     32 H11        -2.0473   -2.4476   -0.8818 H         1 <0>         0.4452
@<TRIPOS>BOND
     1    1    6 ar
     2    1    2 ar
     3    1   25 1
     4    2    3 ar
     5    2   26 1
     6    3    4 ar
     7    3   24 1
     8    4    5 ar
     9    4   23 1
    10    5    6 ar
    11    5   27 1
    12    6    7 1
    13    7    8 1
    14    7    9 1
    15    7   22 1
    16    9   14 ar
    17    9   10 ar
    18   10   11 ar
    19   10   28 1
    20   11   20 1
    21   11   12 ar
    22   12   13 ar
    23   12   16 1
    24   13   14 ar
    25   13   29 1
    26   14   15 1
    27   16   17 1
    28   16   18 am
    29   18   19 2
    30   18   20 am
    31   20   21 1
    32   22   30 1
    33   22   31 1
    34   22   32 1
@<TRIPOS>MOLECULE
ZINC39933517
   38    40     0     0     0
SMALL
USER_CHARGES

@<TRIPOS>ATOM
      1 C1         -0.0187    1.5258    0.0104 C.3       1 <0>        -0.1471
      2 C2          0.0021   -0.0041    0.0020 C.3       1 <0>        -0.1441
      3 H1          0.5293   -0.3651    0.8851 H         1 <0>         0.1301
      4 C3          0.7074   -0.4901   -1.2379 C.2       1 <0>         0.4105
      5 O1          0.0656   -0.7822   -2.2265 O.2       1 <0>        -0.3644
      6 C4          2.1137   -0.6057   -1.2500 C.2       1 <0>        -0.0376
      7 C5          2.9094   -1.0271   -2.3002 C.ar      1 <0>        -0.0665
      8 C6          2.6180   -1.4542   -3.6172 C.ar      1 <0>        -0.0552
      9 C7          3.6169   -1.8185   -4.4520 C.ar      1 <0>        -0.1122
     10 C8          4.9671   -1.7939   -4.0676 C.ar      1 <0>         0.0325
     11 C9          5.3520   -1.4030   -2.8335 C.ar      1 <0>        -0.1852
     12 C10         4.3262   -0.9892   -1.8617 C.ar      1 <0>         0.3178
     13 N1          4.4120   -0.5754   -0.6298 N.pl3     1 <0>        -0.5453
     14 C11         3.0677   -0.2885   -0.1194 C.3       1 <0>         0.0661
     15 S1         -1.6997   -0.6320    0.0149 S.3       1 <0>         0.0725
     16 C12        -2.3349   -0.1100    1.5733 C.ar      1 <0>         0.3714
     17 N2         -1.5543    0.5842    2.3886 N.ar      1 <0>        -0.6236
     18 C13        -2.0004    0.9955    3.5732 C.ar      1 <0>         0.4777
     19 C14        -3.3042    0.6872    3.9505 C.ar      1 <0>        -0.3641
     20 C15        -4.0943   -0.0436    3.0679 C.ar      1 <0>         0.4820
     21 N3         -3.5825   -0.4171    1.8973 N.ar      1 <0>        -0.5864
     22 N4         -5.3986   -0.3739    3.4015 N.pl3     1 <0>        -0.8300
     23 N5         -1.1771    1.7208    4.4203 N.pl3     1 <0>        -0.8351
     24 H2          1.0039    1.9031    0.0027 H         1 <0>         0.0643
     25 H3         -0.5459    1.8868   -0.8726 H         1 <0>         0.0774
     26 H4         -0.5289    1.8773    0.9072 H         1 <0>         0.1031
     27 H5          1.5934   -1.4896   -3.9568 H         1 <0>         0.1693
     28 H6          3.3670   -2.1409   -5.4520 H         1 <0>         0.1616
     29 H7          5.7202   -2.0969   -4.7799 H         1 <0>         0.1689
     30 H8          6.3976   -1.3940   -2.5632 H         1 <0>         0.1707
     31 H9          2.9855    0.7626    0.1571 H         1 <0>         0.1866
     32 H10         2.8526   -0.9214    0.7416 H         1 <0>         0.1859
     33 H11        -3.6935    1.0071    4.9057 H         1 <0>         0.1406
     34 H12        -5.7662   -0.0955    4.2548 H         1 <0>         0.4154
     35 H13        -5.9436   -0.8834    2.7816 H         1 <0>         0.4114
     36 H14        -0.2694    1.9319    4.1512 H         1 <0>         0.4051
     37 H15        -1.5087    2.0174    5.2823 H         1 <0>         0.4150
     38 H16         5.2364   -0.4697   -0.1296 H         1 <0>         0.4608
@<TRIPOS>BOND
     1    1    2 1
     2    1   24 1
     3    1   25 1
     4    1   26 1
     5    2    3 1
     6    2    4 1
     7    2   15 1
     8    4    5 2
     9    4    6 1
    10    6   14 1
    11    6    7 2
    12    7   12 ar
    13    7    8 ar
    14    8    9 ar
    15    8   27 1
    16    9   10 ar
    17    9   28 1
    18   10   11 ar
    19   10   29 1
    20   11   12 ar
    21   11   30 1
    22   12   13 2
    23   13   14 1
    24   13   38 1
    25   14   31 1
    26   14   32 1
    27   15   16 1
    28   16   21 ar
    29   16   17 ar
    30   17   18 ar
    31   18   19 ar
    32   18   23 1
    33   19   20 ar
    34   19   33 1
    35   20   21 ar
    36   20   22 1
    37   22   34 1
    38   22   35 1
    39   23   36 1
    40   23   37 1
@<TRIPOS>MOLECULE
ZINC09058847
   61    64     0     0     0
SMALL
USER_CHARGES
chloro-N-(2,5-dimethoxyphenyl)-isopropyl-methyl-oxo-BLAHcarboxamide
@<TRIPOS>ATOM
      1 C1          1.0915    3.6543    0.1036 C.3       1 <0>        -0.1225
      2 C2          1.1324    2.1481    0.0770 C.ar      1 <0>        -0.0724
      3 C3         -0.0459    1.4224    0.0652 C.ar      1 <0>        -0.0418
      4 C4         -0.0074    0.0463    0.0402 C.ar      1 <0>        -0.1869
      5 C5          1.2083   -0.6295    0.0270 C.ar      1 <0>         0.1708
      6 C6          2.3908    0.1083    0.0397 C.ar      1 <0>        -0.0448
      7 C7          2.3473    1.4881    0.0642 C.ar      1 <0>        -0.0425
      8 Cl1         3.9219   -0.7096    0.0241 Cl        1 <0>        -0.0306
      9 N1          0.9935   -2.0094    0.0018 N.am      1 <0>        -0.6364
     10 C8         -0.3164   -2.3194   -0.0044 C.2       1 <0>         0.5162
     11 O1         -0.7957   -3.4333   -0.0257 O.2       1 <0>        -0.4167
     12 C9         -1.0728   -1.0162    0.0211 C.3       1 <0>         0.0916
     13 C10        -1.9650   -0.9250    1.2647 C.3       1 <0>        -0.1067
     14 H1         -1.6651   -0.0807    1.8855 H         1 <0>         0.1465
     15 C11        -3.3942   -0.7064    0.7123 C.3       1 <0>        -0.1359
     16 C12        -3.1348   -0.1327   -0.7040 C.3       1 <0>         0.0334
     17 H2         -2.9241    0.9356   -0.6533 H         1 <0>         0.1531
     18 C13        -4.3269   -0.4059   -1.6234 C.3       1 <0>        -0.1057
     19 C14        -3.9970    0.0675   -3.0404 C.3       1 <0>        -0.1700
     20 C15        -4.6223   -1.9070   -1.6430 C.3       1 <0>        -0.1756
     21 C16        -1.8980   -2.2074    2.0534 C.2       1 <0>         0.5061
     22 O2         -2.7340   -3.0692    1.8818 O.2       1 <0>        -0.4760
     23 N2         -0.9091   -2.3966    2.9494 N.am      1 <0>        -0.6473
     24 C17        -0.7971   -3.6211    3.6210 C.ar      1 <0>         0.1460
     25 C18        -1.9159   -4.4218    3.7971 C.ar      1 <0>        -0.1271
     26 C19        -1.8021   -5.6328    4.4620 C.ar      1 <0>         0.1182
     27 C20        -0.5707   -6.0439    4.9509 C.ar      1 <0>        -0.1771
     28 C21         0.5458   -5.2477    4.7766 C.ar      1 <0>        -0.1451
     29 C22         0.4389   -4.0392    4.1080 C.ar      1 <0>         0.0675
     30 O3          1.5394   -3.2588    3.9320 O.3       1 <0>        -0.3246
     31 C23         2.7740   -3.7503    4.4575 C.3       1 <0>         0.0279
     32 O4         -2.8984   -6.4182    4.6355 O.3       1 <0>        -0.3121
     33 C24        -2.7087   -7.6529    5.3296 C.3       1 <0>         0.0252
     34 H3          1.0826    3.9993    1.1375 H         1 <0>         0.0865
     35 H4          1.9708    4.0507   -0.4042 H         1 <0>         0.0814
     36 H5          0.1915    4.0023   -0.4034 H         1 <0>         0.0780
     37 H6         -0.9961    1.9357    0.0713 H         1 <0>         0.1462
     38 H7          3.2667    2.0546    0.0732 H         1 <0>         0.1587
     39 H8          1.7056   -2.6679   -0.0098 H         1 <0>         0.4374
     40 H9         -3.9390    0.0115    1.3254 H         1 <0>         0.1332
     41 H10        -3.9361   -1.6503    0.6527 H         1 <0>         0.1327
     42 H11        -5.2006    0.1316   -1.2549 H         1 <0>         0.1273
     43 H12        -3.1233   -0.4700   -3.4089 H         1 <0>         0.0504
     44 H13        -4.8463   -0.1271   -3.6954 H         1 <0>         0.0869
     45 H14        -3.7866    1.1369   -3.0265 H         1 <0>         0.0745
     46 H15        -4.8573   -2.2442   -0.6334 H         1 <0>         0.0829
     47 H16        -5.4716   -2.1016   -2.2979 H         1 <0>         0.0899
     48 H17        -3.7486   -2.4445   -2.0115 H         1 <0>         0.0497
     49 H18        -0.2750   -1.6850    3.1293 H         1 <0>         0.4166
     50 H19        -2.8749   -4.1019    3.4169 H         1 <0>         0.1671
     51 H20        -0.4840   -6.9879    5.4683 H         1 <0>         0.1369
     52 H21         1.5033   -5.5703    5.1580 H         1 <0>         0.1392
     53 H22         3.5684   -3.0336    4.2493 H         1 <0>         0.1024
     54 H23         2.6814   -3.8874    5.5348 H         1 <0>         0.0595
     55 H24         3.0139   -4.7048    3.9890 H         1 <0>         0.0572
     56 H25        -3.6600   -8.1806    5.3989 H         1 <0>         0.1050
     57 H26        -1.9907   -8.2680    4.7872 H         1 <0>         0.0572
     58 H27        -2.3309   -7.4518    6.3320 H         1 <0>         0.0580
     59 N3         -1.9405   -0.8732   -1.1391 N.4       1 <0>        -0.4957
     60 H28        -2.2104   -1.7988   -1.4923 H         1 <0>         0.4370
     61 H29        -1.4548   -0.3529   -1.8791 H         1 <0>         0.4395
@<TRIPOS>BOND
     1    1    2 1
     2    1   34 1
     3    1   35 1
     4    1   36 1
     5    2    7 ar
     6    2    3 ar
     7    3    4 ar
     8    3   37 1
     9    4   12 1
    10    4    5 ar
    11    5    6 ar
    12    5    9 1
    13    6    7 ar
    14    6    8 1
    15    7   38 1
    16    9   10 am
    17    9   39 1
    18   10   11 2
    19   10   12 1
    20   12   13 1
    21   12   59 1
    22   13   14 1
    23   13   15 1
    24   13   21 1
    25   15   16 1
    26   15   40 1
    27   15   41 1
    28   16   17 1
    29   16   18 1
    30   16   59 1
    31   18   19 1
    32   18   20 1
    33   18   42 1
    34   19   43 1
    35   19   44 1
    36   19   45 1
    37   20   46 1
    38   20   47 1
    39   20   48 1
    40   21   22 2
    41   21   23 am
    42   23   24 1
    43   23   49 1
    44   24   29 ar
    45   24   25 ar
    46   25   26 ar
    47   25   50 1
    48   26   27 ar
    49   26   32 1
    50   27   28 ar
    51   27   51 1
    52   28   29 ar
    53   28   52 1
    54   29   30 1
    55   30   31 1
    56   31   53 1
    57   31   54 1
    58   31   55 1
    59   32   33 1
    60   33   56 1
    61   33   57 1
    62   33   58 1
    63   59   60 1
    64   59   61 1
@<TRIPOS>MOLECULE
ZINC21605661
   43    45     0     0     0
SMALL
USER_CHARGES
(7-acetamido-2-oxo-chromen-4-yl)methyl 2-amino-5-chloro-benzoate
@<TRIPOS>ATOM
      1 C1         -0.7133    1.5066   -2.1673 C.3       1 <0>        -0.1749
      2 C2         -0.6974   -0.0004   -2.1686 C.2       1 <0>         0.5197
      3 O1         -1.2418   -0.6117   -3.0635 O.2       1 <0>        -0.5190
      4 N1         -0.0783   -0.6686   -1.1754 N.am      1 <0>        -0.6874
      5 C3         -0.1411   -2.0616   -1.1268 C.2       1 <0>         0.2463
      6 C4         -0.1964   -2.7092    0.1075 C.2       1 <0>        -0.1383
      7 C5         -0.2645   -4.0704    0.1708 C.2       1 <0>        -0.0215
      8 C6         -0.2662   -4.8228   -1.0097 C.2       1 <0>        -0.1760
      9 C7         -0.3328   -6.2851   -0.9710 C.2       1 <0>         0.1317
     10 C8         -0.3319   -6.9592   -2.1504 C.2       1 <0>        -0.2560
     11 C9         -0.2680   -6.2465   -3.3654 C.2       1 <0>         0.5306
     12 O2         -0.2680   -6.8631   -4.4158 O.3       1 <0>        -0.3404
     13 O3         -0.2075   -4.9059   -3.3941 O.3       1 <0>        -0.2376
     14 C10        -0.2047   -4.1760   -2.2581 C.2       1 <0>         0.1666
     15 C11        -0.1423   -2.7917   -2.3056 C.2       1 <0>        -0.1388
     16 C12        -0.4009   -7.0222    0.3417 C.3       1 <0>         0.0790
     17 O4         -0.4589   -8.4514    0.0918 O.3       1 <0>        -0.3491
     18 C13        -0.5239   -9.2587    1.1689 C.2       1 <0>         0.5424
     19 O5         -0.5320   -8.7814    2.2864 O.2       1 <0>        -0.5121
     20 C14        -0.5852  -10.7196    0.9916 C.ar      1 <0>        -0.2350
     21 C15        -0.4629  -11.2792   -0.2837 C.ar      1 <0>         0.0002
     22 C16        -0.5212  -12.6470   -0.4425 C.ar      1 <0>        -0.1184
     23 C17        -0.7009  -13.4730    0.6575 C.ar      1 <0>        -0.0103
     24 C18        -0.8236  -12.9355    1.9220 C.ar      1 <0>        -0.2040
     25 C19        -0.7611  -11.5592    2.1029 C.ar      1 <0>         0.3103
     26 N2         -0.8782  -11.0166    3.3760 N.pl3     1 <0>        -0.8670
     27 Cl1        -0.3685  -13.3398   -2.0269 Cl        1 <0>        -0.0652
     28 H1         -0.1733    1.8782   -1.2839 H         1 <0>         0.0870
     29 H2         -1.7538    1.8623   -2.1375 H         1 <0>         0.1092
     30 H3         -0.2244    1.8792   -3.0795 H         1 <0>         0.1088
     31 H4          0.4765   -0.1158   -0.4030 H         1 <0>         0.4563
     32 H5         -0.1900   -2.1293    1.0186 H         1 <0>         0.1603
     33 H6         -0.3113   -4.5662    1.1291 H         1 <0>         0.1614
     34 H7         -0.3805   -8.0380   -2.1575 H         1 <0>         0.2028
     35 H8         -0.0952   -2.2838   -3.2576 H         1 <0>         0.1737
     36 H9          0.4931   -6.7904    0.9392 H         1 <0>         0.1293
     37 H10        -1.3007   -6.7093    0.8917 H         1 <0>         0.1290
     38 H11        -0.3225  -10.6406   -1.1433 H         1 <0>         0.1403
     39 H12        -0.7453  -14.5436    0.5229 H         1 <0>         0.1427
     40 H13        -0.9636  -13.5855    2.7731 H         1 <0>         0.1437
     41 H14        -1.0159  -11.6770    4.2448 H         1 <0>         0.4230
     42 H15        -0.8332   -9.9264    3.5155 H         1 <0>         0.4383
     43 H16        -0.2186   -6.3211   -5.3717 H         1 <0>         0.5180
@<TRIPOS>BOND
     1    1    2 1
     2    1   28 1
     3    1   29 1
     4    1   30 1
     5    2    3 2
     6    2    4 am
     7    4    5 2
     8    4   31 1
     9    5   15 1
    10    5    6 1
    11    6    7 2
    12    6   32 1
    13    7    8 1
    14    7   33 1
    15    8   14 1
    16    8    9 2
    17    9   10 1
    18    9   16 1
    19   10   11 2
    20   10   34 1
    21   11   12 1
    22   11   13 1
    23   12   43 1
    24   13   14 1
    25   14   15 2
    26   15   35 1
    27   16   17 1
    28   16   36 1
    29   16   37 1
    30   17   18 1
    31   18   19 2
    32   18   20 1
    33   20   25 ar
    34   20   21 ar
    35   21   22 ar
    36   21   38 1
    37   22   23 ar
    38   22   27 1
    39   23   24 ar
    40   23   39 1
    41   24   25 ar
    42   24   40 1
    43   25   26 1
    44   26   41 1
    45   26   42 1
@<TRIPOS>MOLECULE
ZINC44177977
   60    62     0     0     0
SMALL
USER_CHARGES

@<TRIPOS>ATOM
      1 C1          0.6152    1.5746    0.6847 C.3       1 <0>        -0.1760
      2 C2          0.1314    0.1643    0.3413 C.3       1 <0>         0.0463
      3 C3          0.4449   -0.7796    1.5040 C.3       1 <0>        -0.1762
      4 C4         -1.3788    0.1885    0.0971 C.3       1 <0>         0.1207
      5 N1         -1.8420   -1.1619   -0.2317 N.am      1 <0>        -0.7613
      6 C5         -3.1466   -1.3831   -0.4879 C.2       1 <0>         0.7078
      7 O1         -3.9390   -0.4619   -0.4462 O.2       1 <0>        -0.5491
      8 N2         -3.5727   -2.6254   -0.7903 N.am      1 <0>        -0.6725
      9 C6         -4.9087   -2.8391   -1.1482 C.ar      1 <0>         0.1660
     10 C7         -5.9026   -2.0013   -0.6593 C.ar      1 <0>        -0.1254
     11 C8         -7.2199   -2.2145   -1.0146 C.ar      1 <0>        -0.0963
     12 C9         -7.5499   -3.2614   -1.8560 C.ar      1 <0>        -0.1263
     13 C10        -6.5628   -4.0975   -2.3439 C.ar      1 <0>        -0.0861
     14 C11        -5.2426   -3.8858   -1.9972 C.ar      1 <0>        -0.0968
     15 C12        -4.1666   -4.7938   -2.5345 C.3       1 <0>        -0.1011
     16 C13        -3.8854   -5.8859   -1.5348 C.2       1 <0>         0.5013
     17 O2         -4.4984   -5.9231   -0.4889 O.2       1 <0>        -0.5191
     18 N3         -2.9527   -6.8211   -1.8029 N.am      1 <0>        -0.7375
     19 C14        -2.6794   -7.8827   -0.8310 C.3       1 <0>         0.0840
     20 N4          0.8158   -0.3068   -0.8701 N.4       1 <0>        -0.3784
     21 C15         2.2716   -0.2184   -0.6788 C.3       1 <0>        -0.0107
     22 C16         2.9594   -0.9881   -1.8071 C.3       1 <0>        -0.1038
     23 C17         2.4149   -0.5366   -3.1382 C.ar      1 <0>        -0.0926
     24 C18         3.1272   -0.8443   -4.2869 C.ar      1 <0>        -0.1042
     25 C19         2.6580   -0.4502   -5.5240 C.ar      1 <0>        -0.0920
     26 C20         1.4720    0.2544   -5.6172 C.ar      1 <0>        -0.1036
     27 C21         0.7629    0.5623   -4.4737 C.ar      1 <0>        -0.0923
     28 C22         1.2337    0.1685   -3.2299 C.ar      1 <0>        -0.1307
     29 C23         0.4322    0.5332   -2.0083 C.3       1 <0>         0.0361
     30 H1          1.6910    1.5574    0.8587 H         1 <0>         0.0920
     31 H2          0.3918    2.2470   -0.1436 H         1 <0>         0.0868
     32 H3          0.1073    1.9242    1.5835 H         1 <0>         0.1127
     33 H4         -0.1485   -0.4953    2.3729 H         1 <0>         0.1133
     34 H5          0.2020   -1.8027    1.2170 H         1 <0>         0.0781
     35 H6          1.5047   -0.7132    1.7502 H         1 <0>         0.0907
     36 H7         -1.8867    0.5381    0.9960 H         1 <0>         0.1171
     37 H8         -1.6022    0.8609   -0.7312 H         1 <0>         0.0974
     38 H9         -1.2098   -1.8968   -0.2649 H         1 <0>         0.3901
     39 H10        -2.9535   -3.3714   -0.7600 H         1 <0>         0.4033
     40 H11        -5.6456   -1.1840   -0.0017 H         1 <0>         0.1494
     41 H12        -7.9933   -1.5633   -0.6348 H         1 <0>         0.1291
     42 H13        -8.5809   -3.4263   -2.1321 H         1 <0>         0.1281
     43 H14        -6.8238   -4.9146   -3.0002 H         1 <0>         0.1274
     44 H15        -4.5004   -5.2372   -3.4726 H         1 <0>         0.1113
     45 H16        -3.2579   -4.2174   -2.7081 H         1 <0>         0.0933
     46 H17        -2.4625   -6.7913   -2.6393 H         1 <0>         0.4022
     47 H18        -1.9011   -8.5395   -1.2196 H         1 <0>         0.0783
     48 H19        -2.3456   -7.4393    0.1071 H         1 <0>         0.0595
     49 H20        -3.5880   -8.4592   -0.6574 H         1 <0>         0.0635
     50 H21         2.5815    0.8262   -0.7065 H         1 <0>         0.1372
     51 H22         2.5418   -0.6576    0.2815 H         1 <0>         0.1398
     52 H23         4.0326   -0.8005   -1.7720 H         1 <0>         0.1249
     53 H24         2.7747   -2.0551   -1.6830 H         1 <0>         0.1018
     54 H25         4.0536   -1.3946   -4.2137 H         1 <0>         0.1350
     55 H26         3.2161   -0.6912   -6.4166 H         1 <0>         0.1370
     56 H27         1.1011    0.5636   -6.5833 H         1 <0>         0.1377
     57 H28        -0.1632    1.1129   -4.5479 H         1 <0>         0.1340
     58 H29        -0.6279    0.3912   -2.2185 H         1 <0>         0.1388
     59 H30         0.6116    1.5792   -1.7596 H         1 <0>         0.1428
     60 H31         0.5557   -1.2642   -1.0542 H         1 <0>         0.4174
@<TRIPOS>BOND
     1    1    2 1
     2    1   30 1
     3    1   31 1
     4    1   32 1
     5    2    3 1
     6    2    4 1
     7    2   20 1
     8    3   33 1
     9    3   34 1
    10    3   35 1
    11    4    5 1
    12    4   36 1
    13    4   37 1
    14    5    6 am
    15    5   38 1
    16    6    7 2
    17    6    8 am
    18    8    9 1
    19    8   39 1
    20    9   14 ar
    21    9   10 ar
    22   10   11 ar
    23   10   40 1
    24   11   12 ar
    25   11   41 1
    26   12   13 ar
    27   12   42 1
    28   13   14 ar
    29   13   43 1
    30   14   15 1
    31   15   16 1
    32   15   44 1
    33   15   45 1
    34   16   17 2
    35   16   18 am
    36   18   19 1
    37   18   46 1
    38   19   47 1
    39   19   48 1
    40   19   49 1
    41   20   29 1
    42   20   21 1
    43   20   60 1
    44   21   22 1
    45   21   50 1
    46   21   51 1
    47   22   23 1
    48   22   52 1
    49   22   53 1
    50   23   28 ar
    51   23   24 ar
    52   24   25 ar
    53   24   54 1
    54   25   26 ar
    55   25   55 1
    56   26   27 ar
    57   26   56 1
    58   27   28 ar
    59   27   57 1
    60   28   29 1
    61   29   58 1
    62   29   59 1
@<TRIPOS>MOLECULE
ZINC53954957
   64    66     0     0     0
SMALL
USER_CHARGES

@<TRIPOS>ATOM
      1 C1         -0.0187    1.5280    0.0104 C.3       1 <0>        -0.1763
      2 C2          0.0021   -0.0041    0.0020 C.3       1 <0>         0.0621
      3 C3          0.5734   -0.5048   -1.3205 C.3       1 <0>        -0.1381
      4 C4          2.0882   -0.3011   -1.3573 C.3       1 <0>         0.1623
      5 C5          2.7028   -1.0859   -0.1981 C.3       1 <0>        -0.1438
      6 C6          2.1474   -0.5901    1.1329 C.3       1 <0>         0.0602
      7 N1          0.6968   -0.5291    1.1642 N.4       1 <0>        -0.4899
      8 C7          2.7695    0.7662    1.4811 C.3       1 <0>        -0.1721
      9 C8          2.5998   -1.5893    2.2229 C.3       1 <0>        -0.1785
     10 N2          2.6155   -0.8189   -2.6259 N.am      1 <0>        -0.7335
     11 C9          3.7704   -0.3341   -3.1235 C.2       1 <0>         0.7193
     12 O1          4.3756    0.5320   -2.5219 O.2       1 <0>        -0.5890
     13 N3          4.2545   -0.8094   -4.2881 N.am      1 <0>        -0.6083
     14 C10         5.5099   -0.2825   -4.8290 C.3       1 <0>         0.1795
     15 C11         6.6638   -1.0991   -4.3067 C.ar      1 <0>        -0.1374
     16 C12         7.4166   -0.6329   -3.2460 C.ar      1 <0>        -0.0786
     17 C13         8.4756   -1.3813   -2.7668 C.ar      1 <0>        -0.1309
     18 C14         8.7840   -2.5980   -3.3471 C.ar      1 <0>        -0.0970
     19 C15         8.0343   -3.0686   -4.4074 C.ar      1 <0>        -0.1476
     20 C16         6.9677   -2.3219   -4.8869 C.ar      1 <0>         0.1169
     21 O2          6.2250   -2.7853   -5.9264 O.3       1 <0>        -0.4990
     22 C17         3.5253   -1.8530   -5.0130 C.3       1 <0>         0.1043
     23 C18         2.5369   -1.2039   -5.9839 C.3       1 <0>         0.0601
     24 H1          3.0666   -0.5673   -6.6927 H         1 <0>         0.0767
     25 C19         1.7296   -2.2913   -6.7366 C.3       1 <0>        -0.1492
     26 C20         0.4470   -1.4998   -7.1113 C.3       1 <0>        -0.1568
     27 C21         0.2803   -0.5547   -5.9020 C.3       1 <0>         0.0511
     28 O3          1.5582   -0.4394   -5.2621 O.3       1 <0>        -0.3775
     29 C22        -1.4680   -0.4777    0.0788 C.3       1 <0>        -0.1788
     30 H2          1.0039    1.9053    0.0027 H         1 <0>         0.0836
     31 H3         -0.5459    1.8891   -0.8726 H         1 <0>         0.1047
     32 H4         -0.5289    1.8796    0.9072 H         1 <0>         0.0835
     33 H5          0.3481   -1.5676   -1.4360 H         1 <0>         0.0912
     34 H6          0.1145    0.0434   -2.1468 H         1 <0>         0.1166
     35 H7          2.3331    0.7540   -1.2759 H         1 <0>         0.1050
     36 H8          2.4724   -2.1472   -0.3170 H         1 <0>         0.0873
     37 H9          3.7880   -0.9586   -0.2104 H         1 <0>         0.1135
     38 H10         0.4161    0.0213    1.9818 H         1 <0>         0.4258
     39 H11         2.5302    1.4872    0.6994 H         1 <0>         0.0834
     40 H12         2.3694    1.1160    2.4328 H         1 <0>         0.0803
     41 H13         3.8516    0.6604    1.5587 H         1 <0>         0.1049
     42 H14         3.6888   -1.6255    2.2532 H         1 <0>         0.1060
     43 H15         2.2199   -1.2664    3.1922 H         1 <0>         0.0826
     44 H16         2.2096   -2.5805    1.9917 H         1 <0>         0.0805
     45 H17         2.1327   -1.5098   -3.1059 H         1 <0>         0.4020
     46 H18         5.4884   -0.3385   -5.9174 H         1 <0>         0.0852
     47 H19         5.6308    0.7560   -4.5209 H         1 <0>         0.0945
     48 H20         7.1776    0.3170   -2.7911 H         1 <0>         0.1301
     49 H21         9.0632   -1.0149   -1.9380 H         1 <0>         0.1258
     50 H22         9.6121   -3.1806   -2.9711 H         1 <0>         0.1279
     51 H23         8.2757   -4.0189   -4.8603 H         1 <0>         0.1296
     52 H24         6.5527   -2.5152   -6.7951 H         1 <0>         0.3918
     53 H25         4.2310   -2.4688   -5.5705 H         1 <0>         0.1215
     54 H26         2.9812   -2.4760   -4.3031 H         1 <0>         0.0711
     55 H27         2.2589   -2.6266   -7.6285 H         1 <0>         0.0891
     56 H28         1.4960   -3.1308   -6.0818 H         1 <0>         0.0796
     57 H29         0.5960   -0.9320   -8.0297 H         1 <0>         0.0796
     58 H30        -0.4089   -2.1685   -7.2018 H         1 <0>         0.0846
     59 H31        -0.0510    0.4264   -6.2424 H         1 <0>         0.0684
     60 H32        -0.4472   -0.9707   -5.2051 H         1 <0>         0.0658
     61 H33        -2.0182   -0.0956   -0.7811 H         1 <0>         0.1066
     62 H34        -1.4993   -1.5672    0.0753 H         1 <0>         0.0811
     63 H35        -1.9226   -0.1041    0.9963 H         1 <0>         0.0840
     64 H36         0.3407   -1.4720    1.3509 H         1 <0>         0.4229
@<TRIPOS>BOND
     1    1    2 1
     2    1   30 1
     3    1   31 1
     4    1   32 1
     5    2    7 1
     6    2    3 1
     7    2   29 1
     8    3    4 1
     9    3   33 1
    10    3   34 1
    11    4    5 1
    12    4   10 1
    13    4   35 1
    14    5    6 1
    15    5   36 1
    16    5   37 1
    17    6    7 1
    18    6    8 1
    19    6    9 1
    20    7   38 1
    21    7   64 1
    22    8   39 1
    23    8   40 1
    24    8   41 1
    25    9   42 1
    26    9   43 1
    27    9   44 1
    28   10   11 am
    29   10   45 1
    30   11   12 2
    31   11   13 am
    32   13   14 1
    33   13   22 1
    34   14   15 1
    35   14   46 1
    36   14   47 1
    37   15   20 ar
    38   15   16 ar
    39   16   17 ar
    40   16   48 1
    41   17   18 ar
    42   17   49 1
    43   18   19 ar
    44   18   50 1
    45   19   20 ar
    46   19   51 1
    47   20   21 1
    48   21   52 1
    49   22   23 1
    50   22   53 1
    51   22   54 1
    52   23   24 1
    53   23   28 1
    54   23   25 1
    55   25   26 1
    56   25   55 1
    57   25   56 1
    58   26   27 1
    59   26   57 1
    60   26   58 1
    61   27   28 1
    62   27   59 1
    63   27   60 1
    64   29   61 1
    65   29   62 1
    66   29   63 1
@<TRIPOS>MOLECULE
ZINC67400711
   58    59     0     0     0
SMALL
USER_CHARGES

@<TRIPOS>ATOM
      1 C1          0.0194    1.3159    0.7754 C.3       1 <0>        -0.1811
      2 C2          0.0021   -0.0041    0.0020 C.3       1 <0>         0.0069
      3 H1          0.2296    0.1863   -1.0468 H         1 <0>         0.1617
      4 C3         -1.3625   -0.6339    0.1137 C.2       1 <0>         0.5135
      5 O1         -1.5913   -1.4319    0.9972 O.2       1 <0>        -0.4457
      6 N1         -2.3284   -0.3099   -0.7686 N.am      1 <0>        -0.6780
      7 C4         -3.5488   -0.8731   -0.6687 C.2       1 <0>         0.6925
      8 O2         -3.7782   -1.6732    0.2169 O.2       1 <0>        -0.5112
      9 N2         -4.5147   -0.5492   -1.5510 N.am      1 <0>        -0.7201
     10 C5         -5.8412   -1.1614   -1.4425 C.3       1 <0>         0.1829
     11 C6         -6.4521   -0.8171   -0.0826 C.3       1 <0>        -0.1685
     12 C7         -6.7427   -0.6261   -2.5568 C.3       1 <0>        -0.1585
     13 C8         -5.7142   -2.6804   -1.5746 C.3       1 <0>        -0.1679
     14 N3          1.0089   -0.9142    0.5641 N.4       1 <0>        -0.3720
     15 C9          1.0099   -2.1699   -0.1959 C.3       1 <0>        -0.0141
     16 C10         1.9994   -3.1518    0.4352 C.3       1 <0>        -0.1336
     17 C11         3.4026   -2.5388    0.4131 C.3       1 <0>        -0.1300
     18 C12         3.3730   -1.1938    1.1448 C.3       1 <0>        -0.1425
     19 C13         2.3326   -0.2845    0.4874 C.3       1 <0>        -0.0087
     20 C14         4.3835   -3.4810    1.1138 C.3       1 <0>         0.1587
     21 H2          4.0691   -3.6302    2.1468 H         1 <0>         0.1147
     22 C15         5.7638   -2.8765    1.0913 C.ar      1 <0>        -0.1263
     23 C16         6.5386   -2.9657   -0.0501 C.ar      1 <0>        -0.0991
     24 C17         7.8046   -2.4115   -0.0714 C.ar      1 <0>        -0.1035
     25 C18         8.2963   -1.7673    1.0499 C.ar      1 <0>        -0.0289
     26 C19         7.5204   -1.6783    2.1919 C.ar      1 <0>        -0.1053
     27 C20         6.2524   -2.2280    2.2101 C.ar      1 <0>        -0.0981
     28 Cl1         9.8865   -1.0714    1.0241 Cl        1 <0>        -0.0547
     29 O3          4.4032   -4.7386    0.4355 O.3       1 <0>        -0.5436
     30 H3          1.0063    1.7715    0.6947 H         1 <0>         0.1030
     31 H4         -0.7277    1.9912    0.3583 H         1 <0>         0.1127
     32 H5         -0.2082    1.1255    1.8243 H         1 <0>         0.0933
     33 H6         -2.1453    0.3286   -1.4755 H         1 <0>         0.4164
     34 H7         -4.3316    0.0893   -2.2579 H         1 <0>         0.4006
     35 H8         -6.5426    0.2650    0.0115 H         1 <0>         0.0567
     36 H9         -7.4391   -1.2726   -0.0019 H         1 <0>         0.0723
     37 H10        -5.8099   -1.1984    0.7112 H         1 <0>         0.0776
     38 H11        -6.3075   -0.8714   -3.5256 H         1 <0>         0.0653
     39 H12        -7.7297   -1.0817   -2.4760 H         1 <0>         0.0831
     40 H13        -6.8332    0.4560   -2.4627 H         1 <0>         0.0656
     41 H14        -5.0720   -3.0617   -0.7808 H         1 <0>         0.0773
     42 H15        -6.7012   -3.1359   -1.4939 H         1 <0>         0.0723
     43 H16        -5.2790   -2.9257   -2.5434 H         1 <0>         0.0561
     44 H17         0.0098   -2.6033   -0.1820 H         1 <0>         0.1320
     45 H18         1.3040   -1.9702   -1.2263 H         1 <0>         0.1300
     46 H19         1.7060   -3.3524    1.4656 H         1 <0>         0.0939
     47 H20         1.9999   -4.0828   -0.1316 H         1 <0>         0.1212
     48 H21         3.7171   -2.3853   -0.6192 H         1 <0>         0.0953
     49 H22         3.1081   -1.3538    2.1900 H         1 <0>         0.0944
     50 H23         4.3554   -0.7254    1.0852 H         1 <0>         0.1196
     51 H24         2.5986   -0.1250   -0.5576 H         1 <0>         0.1329
     52 H25         2.3091    0.6740    1.0058 H         1 <0>         0.1385
     53 H26         6.1547   -3.4690   -0.9252 H         1 <0>         0.1297
     54 H27         8.4099   -2.4816   -0.9630 H         1 <0>         0.1385
     55 H28         7.9039   -1.1758    3.0676 H         1 <0>         0.1389
     56 H29         5.6448   -2.1544    3.0999 H         1 <0>         0.1336
     57 H30         4.6746   -4.6816   -0.4908 H         1 <0>         0.3786
     58 H31         0.7849   -1.1074    1.5288 H         1 <0>         0.4313
@<TRIPOS>BOND
     1    1    2 1
     2    1   30 1
     3    1   31 1
     4    1   32 1
     5    2    3 1
     6    2    4 1
     7    2   14 1
     8    4    5 2
     9    4    6 am
    10    6    7 am
    11    6   33 1
    12    7    8 2
    13    7    9 am
    14    9   10 1
    15    9   34 1
    16   10   11 1
    17   10   12 1
    18   10   13 1
    19   11   35 1
    20   11   36 1
    21   11   37 1
    22   12   38 1
    23   12   39 1
    24   12   40 1
    25   13   41 1
    26   13   42 1
    27   13   43 1
    28   14   19 1
    29   14   15 1
    30   14   58 1
    31   15   16 1
    32   15   44 1
    33   15   45 1
    34   16   17 1
    35   16   46 1
    36   16   47 1
    37   17   18 1
    38   17   20 1
    39   17   48 1
    40   18   19 1
    41   18   49 1
    42   18   50 1
    43   19   51 1
    44   19   52 1
    45   20   21 1
    46   20   22 1
    47   20   29 1
    48   22   27 ar
    49   22   23 ar
    50   23   24 ar
    51   23   53 1
    52   24   25 ar
    53   24   54 1
    54   25   26 ar
    55   25   28 1
    56   26   27 ar
    57   26   55 1
    58   27   56 1
    59   29   57 1
@<TRIPOS>MOLECULE
ZINC09407934
   47    50     0     0     0
SMALL
USER_CHARGES
4-chloro-2-[6-(2-hydroxyphenyl)-2-(3-methyl-2-thienyl)-2,3,4,5-tetrahydropyrimidin-4-yl]-phenol
@<TRIPOS>ATOM
      1 C1          0.9415    4.7797    5.0316 C.3       1 <0>        -0.1245
      2 C2          1.9481    3.9510    4.2759 C.2       1 <0>        -0.0249
      3 C3          3.2605    4.3705    4.1652 C.2       1 <0>        -0.1741
      4 C4          4.1390    3.6050    3.4726 C.2       1 <0>        -0.1119
      5 S1          3.1115    2.2396    2.9557 S.3       1 <0>         0.0685
      6 C5          1.5808    2.7813    3.6977 C.2       1 <0>        -0.2686
      7 C6          0.2294    2.1146    3.6802 C.3       1 <0>         0.3049
      8 H1         -0.5247    2.8225    4.0240 H         1 <0>         0.1779
      9 C7          1.1136   -0.1025    4.0272 C.3       1 <0>         0.0866
     10 H2          2.0917    0.3111    3.7814 H         1 <0>         0.1519
     11 C8          0.4493   -0.6475    2.7590 C.3       1 <0>        -0.1382
     12 C9          0.0095    0.4987    1.8912 C.2       1 <0>         0.2626
     13 N1         -0.0793    1.7037    2.3163 N.2       1 <0>        -0.4868
     14 C10        -0.3299    0.2238    0.4836 C.ar      1 <0>        -0.1263
     15 C11        -0.3482   -1.0901    0.0090 C.ar      1 <0>        -0.0684
     16 C12        -0.6668   -1.3403   -1.3084 C.ar      1 <0>        -0.1324
     17 C13        -0.9692   -0.2946   -2.1650 C.ar      1 <0>        -0.0623
     18 C14        -0.9603    1.0084   -1.7072 C.ar      1 <0>        -0.1579
     19 C15        -0.6365    1.2790   -0.3865 C.ar      1 <0>         0.1718
     20 O1         -0.6219    2.5594    0.0630 O.3       1 <0>        -0.4718
     21 C16         1.2694   -1.2110    5.0362 C.ar      1 <0>        -0.1527
     22 C17         0.3125   -1.3933    6.0160 C.ar      1 <0>        -0.1065
     23 C18         0.4550   -2.4108    6.9425 C.ar      1 <0>        -0.0312
     24 C19         1.5558   -3.2478    6.8898 C.ar      1 <0>        -0.0666
     25 C20         2.5143   -3.0690    5.9115 C.ar      1 <0>        -0.1135
     26 C21         2.3705   -2.0524    4.9782 C.ar      1 <0>         0.1494
     27 O2          3.3102   -1.8778    4.0119 O.3       1 <0>        -0.4874
     28 Cl1        -0.7483   -2.6376    8.1731 Cl        1 <0>        -0.0350
     29 H3          0.8650    4.4139    6.0556 H         1 <0>         0.0827
     30 H4          1.2622    5.8214    5.0411 H         1 <0>         0.0854
     31 H5         -0.0308    4.7033    4.5449 H         1 <0>         0.0761
     32 H6          3.5801    5.2965    4.6198 H         1 <0>         0.1522
     33 H7          5.1881    3.7768    3.2824 H         1 <0>         0.2012
     34 H8         -0.3458   -1.1996    3.0101 H         1 <0>         0.1116
     35 H9          1.1621   -1.2646    2.2121 H         1 <0>         0.1465
     36 H10        -0.1134   -1.9084    0.6734 H         1 <0>         0.1335
     37 H11        -0.6811   -2.3563   -1.6744 H         1 <0>         0.1378
     38 H12        -1.2181   -0.4998   -3.1957 H         1 <0>         0.1377
     39 H13        -1.2016    1.8180   -2.3801 H         1 <0>         0.1396
     40 H14         0.2113    3.0231   -0.0976 H         1 <0>         0.3936
     41 H15        -0.5471   -0.7409    6.0590 H         1 <0>         0.1315
     42 H16         1.6657   -4.0411    7.6143 H         1 <0>         0.1538
     43 H17         3.3734   -3.7222    5.8709 H         1 <0>         0.1563
     44 H18         4.0278   -1.2808    4.2644 H         1 <0>         0.4029
     45 N2          0.2479    0.9550    4.5847 N.4       1 <0>        -0.5467
     46 H19        -0.7065    0.5921    4.6926 H         1 <0>         0.4337
     47 H20         0.6100    1.2436    5.5011 H         1 <0>         0.4382
@<TRIPOS>BOND
     1    1    2 1
     2    1   29 1
     3    1   30 1
     4    1   31 1
     5    2    6 2
     6    2    3 1
     7    3    4 2
     8    3   32 1
     9    4    5 1
    10    4   33 1
    11    5    6 1
    12    6    7 1
    13    7    8 1
    14    7   13 1
    15    7   45 1
    16    9   10 1
    17    9   11 1
    18    9   21 1
    19    9   45 1
    20   11   12 1
    21   11   34 1
    22   11   35 1
    23   12   13 2
    24   12   14 1
    25   14   19 ar
    26   14   15 ar
    27   15   16 ar
    28   15   36 1
    29   16   17 ar
    30   16   37 1
    31   17   18 ar
    32   17   38 1
    33   18   19 ar
    34   18   39 1
    35   19   20 1
    36   20   40 1
    37   21   26 ar
    38   21   22 ar
    39   22   23 ar
    40   22   41 1
    41   23   24 ar
    42   23   28 1
    43   24   25 ar
    44   24   42 1
    45   25   26 ar
    46   25   43 1
    47   26   27 1
    48   27   44 1
    49   45   46 1
    50   45   47 1
@<TRIPOS>MOLECULE
ZINC39533650
   56    59     0     0     0
SMALL
USER_CHARGES

@<TRIPOS>ATOM
      1 C1          0.1427    1.6297   -0.3388 C.ar      1 <0>        -0.1106
      2 C2          1.2993    2.2543    0.0917 C.ar      1 <0>        -0.1163
      3 C3          2.4882    1.5548    0.1377 C.ar      1 <0>        -0.1070
      4 C4          2.5220    0.2171   -0.2504 C.ar      1 <0>        -0.0607
      5 C5          1.3539   -0.4072   -0.6833 C.ar      1 <0>        -0.1080
      6 C6          0.1705    0.3018   -0.7253 C.ar      1 <0>        -0.1177
      7 C7          3.7974   -0.5400   -0.2036 C.ar      1 <0>        -0.0259
      8 C8          4.9644    0.0828    0.2343 C.ar      1 <0>        -0.1064
      9 C9          6.1479   -0.6262    0.2763 C.ar      1 <0>        -0.1024
     10 C10         6.1768   -1.9524   -0.1156 C.ar      1 <0>        -0.0913
     11 C11         5.0213   -2.5755   -0.5515 C.ar      1 <0>        -0.1004
     12 C12         3.8312   -1.8777   -0.5917 C.ar      1 <0>        -0.1136
     13 C13         7.4721   -2.7212   -0.0679 C.3       1 <0>         0.1437
     14 H1          8.2855   -2.0844   -0.4156 H         1 <0>         0.1176
     15 C14         7.7498   -3.1639    1.3700 C.3       1 <0>        -0.0143
     16 N1          9.0155   -3.9080    1.4175 N.3       1 <0>        -0.4506
     17 F1          9.3602   -4.1631    2.6448 F         1 <0>        -0.0846
     18 N2          7.3717   -3.9038   -0.9336 N.3       1 <0>        -0.5266
     19 C15         6.7452   -5.0264   -0.2213 C.3       1 <0>         0.0020
     20 C16         6.6053   -6.2163   -1.1732 C.3       1 <0>        -0.0037
     21 N3          7.9323   -6.6069   -1.6673 N.4       1 <0>        -0.5091
     22 C17         8.5349   -5.4839   -2.3975 C.3       1 <0>         0.0921
     23 H2          7.8920   -5.2070   -3.2330 H         1 <0>         0.1631
     24 C18         8.6908   -4.2879   -1.4557 C.3       1 <0>         0.0303
     25 C19         9.8885   -5.8923   -2.9190 C.ar      1 <0>        -0.1691
     26 C20        10.5481   -6.9703   -2.3606 C.ar      1 <0>        -0.1162
     27 C21        11.7901   -7.3452   -2.8383 C.ar      1 <0>        -0.1083
     28 C22        12.3752   -6.6430   -3.8760 C.ar      1 <0>        -0.0750
     29 C23        11.7197   -5.5648   -4.4379 C.ar      1 <0>        -0.1283
     30 C24        10.4707   -5.1898   -3.9638 C.ar      1 <0>         0.1444
     31 O1          9.8213   -4.1329   -4.5187 O.3       1 <0>        -0.4916
     32 H3         -0.7864    2.1795   -0.3690 H         1 <0>         0.1266
     33 H4          1.2721    3.2914    0.3920 H         1 <0>         0.1277
     34 H5          3.3908    2.0436    0.4737 H         1 <0>         0.1257
     35 H6          1.3745   -1.4438   -0.9856 H         1 <0>         0.1238
     36 H7         -0.7356   -0.1811   -1.0603 H         1 <0>         0.1267
     37 H8          4.9431    1.1184    0.5399 H         1 <0>         0.1306
     38 H9          7.0530   -0.1445    0.6156 H         1 <0>         0.1277
     39 H10         5.0496   -3.6110   -0.8567 H         1 <0>         0.1280
     40 H11         2.9287   -2.3664   -0.9281 H         1 <0>         0.1273
     41 H12         7.8197   -2.2867    2.0132 H         1 <0>         0.1140
     42 H13         6.9385   -3.8045    1.7161 H         1 <0>         0.0633
     43 H14         8.9567   -4.7565    0.8747 H         1 <0>         0.3300
     44 H15         7.3670   -5.3109    0.6276 H         1 <0>         0.0553
     45 H16         5.7592   -4.7269    0.1339 H         1 <0>         0.1387
     46 H17         6.1538   -7.0547   -0.6429 H         1 <0>         0.1450
     47 H18         5.9723   -5.9356   -2.0151 H         1 <0>         0.1474
     48 H19         8.5217   -6.8555   -0.8870 H         1 <0>         0.4207
     49 H20         9.1243   -3.4496   -2.0011 H         1 <0>         0.1277
     50 H21         9.3446   -4.5602   -0.6272 H         1 <0>         0.0758
     51 H22        10.0932   -7.5204   -1.5501 H         1 <0>         0.1184
     52 H23        12.3044   -8.1877   -2.4000 H         1 <0>         0.1394
     53 H24        13.3457   -6.9376   -4.2472 H         1 <0>         0.1418
     54 H25        12.1771   -5.0167   -5.2483 H         1 <0>         0.1449
     55 H26        10.0202   -3.2847   -4.0991 H         1 <0>         0.4012
     56 H27         7.8410   -7.3993   -2.2852 H         1 <0>         0.4368
@<TRIPOS>BOND
     1    1    6 ar
     2    1    2 ar
     3    1   32 1
     4    2    3 ar
     5    2   33 1
     6    3    4 ar
     7    3   34 1
     8    4    5 ar
     9    4    7 1
    10    5    6 ar
    11    5   35 1
    12    6   36 1
    13    7   12 ar
    14    7    8 ar
    15    8    9 ar
    16    8   37 1
    17    9   10 ar
    18    9   38 1
    19   10   11 ar
    20   10   13 1
    21   11   12 ar
    22   11   39 1
    23   12   40 1
    24   13   14 1
    25   13   15 1
    26   13   18 1
    27   15   16 1
    28   15   41 1
    29   15   42 1
    30   16   17 1
    31   16   43 1
    32   18   24 1
    33   18   19 1
    34   19   20 1
    35   19   44 1
    36   19   45 1
    37   20   21 1
    38   20   46 1
    39   20   47 1
    40   21   22 1
    41   21   48 1
    42   21   56 1
    43   22   23 1
    44   22   24 1
    45   22   25 1
    46   24   49 1
    47   24   50 1
    48   25   30 ar
    49   25   26 ar
    50   26   27 ar
    51   26   51 1
    52   27   28 ar
    53   27   52 1
    54   28   29 ar
    55   28   53 1
    56   29   30 ar
    57   29   54 1
    58   30   31 1
    59   31   55 1
@<TRIPOS>MOLECULE
ZINC40687926
   50    54     0     0     0
SMALL
USER_CHARGES

@<TRIPOS>ATOM
      1 C1         -2.3223    0.9435    0.4086 C.3       1 <0>        -0.1548
      2 C2         -1.6786   -0.4144    0.2951 C.ar      1 <0>         0.2470
      3 C3         -1.7463   -1.0976   -0.9162 C.ar      1 <0>        -0.1811
      4 C4         -1.1680   -2.3303   -1.0370 C.ar      1 <0>         0.0485
      5 C5         -0.5163   -2.8701    0.0846 C.ar      1 <0>        -0.1230
      6 C6         -0.4837   -2.1227    1.2877 C.ar      1 <0>         0.1608
      7 N1         -1.0650   -0.9191    1.3382 N.ar      1 <0>        -0.4647
      8 C7          0.1671   -2.6593    2.4113 C.ar      1 <0>        -0.1759
      9 C8          0.7576   -3.8845    2.3374 C.ar      1 <0>         0.0009
     10 C9          0.7319   -4.6263    1.1615 C.ar      1 <0>        -0.1303
     11 C10         0.1035   -4.1364    0.0348 C.ar      1 <0>         0.2383
     12 N2          0.0811   -4.8848   -1.1395 N.pl3     1 <0>        -0.6401
     13 C11         0.2061   -6.2681   -1.0846 C.ar      1 <0>         0.3569
     14 C12         0.3123   -7.0185   -2.2589 C.ar      1 <0>         0.0816
     15 C13         0.4355   -8.4026   -2.1468 C.ar      1 <0>         0.3251
     16 N3          0.4473   -8.9528   -0.9364 N.ar      1 <0>        -0.5326
     17 C14         0.3446   -8.2100    0.1469 C.ar      1 <0>         0.3204
     18 N4          0.2320   -6.8983    0.0867 N.ar      1 <0>        -0.5392
     19 O1          0.5414   -9.1764   -3.2561 O.3       1 <0>        -0.2406
     20 C15         0.5533  -10.5254   -3.0939 C.ar      1 <0>         0.0926
     21 C16        -0.5875  -11.1723   -2.6077 C.ar      1 <0>        -0.1166
     22 C17        -0.6062  -12.5209   -2.4352 C.ar      1 <0>        -0.0838
     23 C18         0.5350  -13.2799   -2.7488 C.ar      1 <0>        -0.0490
     24 C19         0.5496  -14.6753   -2.5836 C.ar      1 <0>        -0.1051
     25 C20         1.6713  -15.3793   -2.8979 C.ar      1 <0>        -0.1089
     26 C21         2.8096  -14.7371   -3.3820 C.ar      1 <0>        -0.1086
     27 C22         2.8323  -13.3874   -3.5549 C.ar      1 <0>        -0.1053
     28 C23         1.6924  -12.6267   -3.2416 C.ar      1 <0>        -0.0411
     29 C24         1.6773  -11.2328   -3.4132 C.ar      1 <0>        -0.0957
     30 N5          0.2950   -6.3958   -3.5161 N.pl3     1 <0>        -0.8604
     31 H1         -1.6001    1.7121    0.1332 H         1 <0>         0.1234
     32 H2         -3.1812    0.9955   -0.2606 H         1 <0>         0.1220
     33 H3         -2.6512    1.1050    1.4351 H         1 <0>         0.1021
     34 H4         -2.2554   -0.6543   -1.7593 H         1 <0>         0.1845
     35 H5         -1.2112   -2.8745   -1.9689 H         1 <0>         0.1647
     36 H6          0.1995   -2.0996    3.3344 H         1 <0>         0.1547
     37 H7          1.2550   -4.2869    3.2075 H         1 <0>         0.1583
     38 H8          1.2086   -5.5949    1.1295 H         1 <0>         0.1770
     39 H9         -0.0218   -4.4407   -1.9957 H         1 <0>         0.4194
     40 H10         0.3573   -8.6903    1.1141 H         1 <0>         0.2099
     41 H11        -1.4658  -10.5924   -2.3655 H         1 <0>         0.1235
     42 H12        -1.4941  -13.0071   -2.0586 H         1 <0>         0.1357
     43 H13        -0.3248  -15.1866   -2.2088 H         1 <0>         0.1313
     44 H14         1.6795  -16.4517   -2.7699 H         1 <0>         0.1280
     45 H15         3.6868  -15.3192   -3.6231 H         1 <0>         0.1281
     46 H16         3.7216  -12.9032   -3.9306 H         1 <0>         0.1298
     47 H17         2.5508  -10.7228   -3.7917 H         1 <0>         0.1351
     48 H18         0.2084   -5.4317   -3.5787 H         1 <0>         0.3940
     49 H19         0.3696   -6.9295   -4.3227 H         1 <0>         0.4169
     50 H20        -1.0354   -0.4113    2.1641 H         1 <0>         0.4460
@<TRIPOS>BOND
     1    1    2 1
     2    1   31 1
     3    1   32 1
     4    1   33 1
     5    2    7 ar
     6    2    3 ar
     7    3    4 ar
     8    3   34 1
     9    4    5 ar
    10    4   35 1
    11    5   11 ar
    12    5    6 ar
    13    6    7 ar
    14    6    8 ar
    15    7   50 1
    16    8    9 ar
    17    8   36 1
    18    9   10 ar
    19    9   37 1
    20   10   11 ar
    21   10   38 1
    22   11   12 1
    23   12   13 1
    24   12   39 1
    25   13   18 ar
    26   13   14 ar
    27   14   15 ar
    28   14   30 1
    29   15   16 ar
    30   15   19 1
    31   16   17 ar
    32   17   18 ar
    33   17   40 1
    34   19   20 1
    35   20   29 ar
    36   20   21 ar
    37   21   22 ar
    38   21   41 1
    39   22   23 ar
    40   22   42 1
    41   23   28 ar
    42   23   24 ar
    43   24   25 ar
    44   24   43 1
    45   25   26 ar
    46   25   44 1
    47   26   27 ar
    48   26   45 1
    49   27   28 ar
    50   27   46 1
    51   28   29 ar
    52   29   47 1
    53   30   48 1
    54   30   49 1
@<TRIPOS>MOLECULE
ZINC43548215
   62    65     0     0     0
SMALL
USER_CHARGES

@<TRIPOS>ATOM
      1 C1         -0.5956    1.3851    0.0225 C.3       1 <0>        -0.1729
      2 C2         -0.5421   -0.1426    0.0873 C.3       1 <0>        -0.0087
      3 H1         -0.3171   -0.5415   -0.9018 H         1 <0>         0.0982
      4 C3         -1.8856   -0.6790    0.5584 C.2       1 <0>         0.0702
      5 C4         -2.0501   -1.0887    1.8410 C.2       1 <0>        -0.1081
      6 S1         -3.7444   -1.6049    1.8665 S.3       1 <0>         0.3186
      7 C5         -4.1035   -1.2615    0.2562 C.cat     1 <0>         0.2999
      8 N1         -2.9676   -0.7893   -0.2091 N.pl3     1 <0>        -0.5376
      9 N2         -5.3038   -1.4352   -0.4149 N.pl3     1 <0>        -0.6437
     10 C6         -6.4650   -1.9827    0.2908 C.3       1 <0>         0.1387
     11 C7         -7.6336   -2.0694   -0.6567 C.2       1 <0>        -0.2071
     12 C8         -8.2513   -3.2113   -0.8321 C.2       1 <0>        -0.1231
     13 C9         -1.0384   -1.0928    2.9341 C.3       1 <0>        -0.0413
     14 C10         0.1517   -0.2131    2.5093 C.3       1 <0>        -0.0427
     15 C11         0.5422   -0.5735    1.0696 C.3       1 <0>        -0.0652
     16 H2          1.4706   -0.0615    0.8164 H         1 <0>         0.1060
     17 C12         0.7865   -2.0791    0.9767 C.3       1 <0>         0.0977
     18 H3          1.0389   -2.3448   -0.0498 H         1 <0>         0.0937
     19 C13         1.9462   -2.4557    1.9032 C.3       1 <0>        -0.0958
     20 H4          2.8481   -1.9321    1.5861 H         1 <0>         0.0911
     21 C14         1.6085   -2.0614    3.3414 C.3       1 <0>        -0.1218
     22 C15         1.3388   -0.5548    3.4227 C.3       1 <0>        -0.1113
     23 C16         2.1834   -3.9656    1.8333 C.3       1 <0>        -0.1092
     24 H5          1.2812   -4.4901    2.1481 H         1 <0>         0.0979
     25 C17         3.3420   -4.3432    2.7586 C.3       1 <0>        -0.1495
     26 C18         2.5233   -4.3557    0.4180 C.2       1 <0>         0.5173
     27 O1          2.5711   -3.5095   -0.4495 O.2       1 <0>        -0.5350
     28 N3          2.7742   -5.6451    0.1161 N.am      1 <0>        -0.6987
     29 C19         3.1046   -6.0244   -1.2598 C.3       1 <0>         0.0725
     30 C20         2.4384   -7.2801   -1.8258 C.3       1 <0>        -0.1914
     31 C21         3.9248   -7.2998   -1.4635 C.3       1 <0>        -0.1858
     32 O2         -0.3931   -2.7802    1.3756 O.3       1 <0>        -0.5618
     33 C22        -0.2074    1.2695    2.6265 C.3       1 <0>        -0.1566
     34 H6          0.4143    1.7877    0.1004 H         1 <0>         0.0838
     35 H7         -1.0374    1.6933   -0.9251 H         1 <0>         0.0579
     36 H8         -1.2018    1.7627    0.8459 H         1 <0>         0.0822
     37 H9         -5.3749   -1.1942   -1.3518 H         1 <0>         0.4273
     38 H10        -6.2263   -2.9780    0.6655 H         1 <0>         0.0947
     39 H11        -6.7223   -1.3319    1.1265 H         1 <0>         0.0997
     40 H12        -7.9619   -1.1902   -1.1911 H         1 <0>         0.1272
     41 H13        -9.0888   -3.2735   -1.5112 H         1 <0>         0.1177
     42 H14        -7.9230   -4.0905   -0.2977 H         1 <0>         0.1074
     43 H15        -1.4828   -0.6916    3.8450 H         1 <0>         0.0863
     44 H16        -0.6950   -2.1121    3.1105 H         1 <0>         0.1381
     45 H17         0.7202   -2.6031    3.6663 H         1 <0>         0.0744
     46 H18         2.4447   -2.3162    3.9925 H         1 <0>         0.0746
     47 H19         2.2229   -0.0098    3.0918 H         1 <0>         0.0739
     48 H20         1.1005   -0.2789    4.4499 H         1 <0>         0.0763
     49 H21         4.2441   -3.8187    2.4438 H         1 <0>         0.0657
     50 H22         3.0961   -4.0609    3.7824 H         1 <0>         0.0770
     51 H23         3.5110   -5.4188    2.7089 H         1 <0>         0.0622
     52 H24         2.7359   -6.3219    0.8099 H         1 <0>         0.4032
     53 H25         3.2831   -5.1963   -1.9458 H         1 <0>         0.1381
     54 H26         1.7543   -7.8240   -1.1744 H         1 <0>         0.0971
     55 H27         2.1784   -7.2783   -2.8844 H         1 <0>         0.1039
     56 H28         4.6426   -7.3110   -2.2836 H         1 <0>         0.1070
     57 H29         4.2185   -7.8567   -0.5737 H         1 <0>         0.0996
     58 H30        -0.3091   -3.7429    1.3409 H         1 <0>         0.3663
     59 H31        -0.0841    1.5926    3.6602 H         1 <0>         0.0650
     60 H32         0.4491    1.8544    1.9823 H         1 <0>         0.0716
     61 H33        -1.2430    1.4179    2.3205 H         1 <0>         0.0604
     62 H34        -2.9169   -0.5133   -1.1376 H         1 <0>         0.4270
@<TRIPOS>BOND
     1    1    2 1
     2    1   34 1
     3    1   35 1
     4    1   36 1
     5    2    3 1
     6    2   15 1
     7    2    4 1
     8    4    8 1
     9    4    5 2
    10    5    6 1
    11    5   13 1
    12    6    7 1
    13    7    8 2
    14    7    9 1
    15    8   62 1
    16    9   10 1
    17    9   37 1
    18   10   11 1
    19   10   38 1
    20   10   39 1
    21   11   12 2
    22   11   40 1
    23   12   41 1
    24   12   42 1
    25   13   14 1
    26   13   43 1
    27   13   44 1
    28   14   22 1
    29   14   15 1
    30   14   33 1
    31   15   16 1
    32   15   17 1
    33   17   18 1
    34   17   19 1
    35   17   32 1
    36   19   20 1
    37   19   21 1
    38   19   23 1
    39   21   22 1
    40   21   45 1
    41   21   46 1
    42   22   47 1
    43   22   48 1
    44   23   24 1
    45   23   25 1
    46   23   26 1
    47   25   49 1
    48   25   50 1
    49   25   51 1
    50   26   27 2
    51   26   28 am
    52   28   29 1
    53   28   52 1
    54   29   31 1
    55   29   30 1
    56   29   53 1
    57   30   31 1
    58   30   54 1
    59   30   55 1
    60   31   56 1
    61   31   57 1
    62   32   58 1
    63   33   59 1
    64   33   60 1
    65   33   61 1
@<TRIPOS>MOLECULE
ZINC65946459
   56    58     0     0     0
SMALL
USER_CHARGES

@<TRIPOS>ATOM
      1 C1          0.1428    1.1849   -0.7904 C.ar      1 <0>         0.0438
      2 C2          1.3001    1.9271   -0.6568 C.ar      1 <0>        -0.2109
      3 C3          2.5327    1.2881   -0.6205 C.ar      1 <0>         0.3421
      4 C4          2.5971   -0.0963   -0.7188 C.ar      1 <0>        -0.7478
      5 C5          1.4364   -0.8322   -0.8521 C.ar      1 <0>         0.0962
      6 C6          0.2106   -0.1927   -0.8879 C.ar      1 <0>        -0.1126
      7 N1         -1.0315   -0.9847   -1.0309 N.pl3     1 <0>         0.0349
      8 O1         -2.1038   -0.4271   -1.0624 O.2       1 <0>        -0.1531
      9 O2         -0.9739   -2.1893   -1.1163 O.3       1 <0>        -0.1480
     10 S1          4.1583   -0.9120   -0.6739 S.o2      1 <0>         2.7016
     11 O3          4.8603   -0.3843    0.4433 O.2       1 <0>        -0.9544
     12 O4          3.8954   -2.3006   -0.8218 O.2       1 <0>        -0.9367
     13 N2          4.9951   -0.4423   -2.0235 N.pl3     1 <0>        -1.2497
     14 N3          3.7049    2.0355   -0.4860 N.pl3     1 <0>        -0.7244
     15 C7          3.6351    3.4952   -0.3830 C.3       1 <0>         0.1327
     16 C8          3.5922    4.1062   -1.7866 C.3       1 <0>        -0.1710
     17 C9          3.5996    5.6322   -1.6731 C.3       1 <0>        -0.0035
     18 N4          4.8201    6.0693   -0.9847 N.4       1 <0>        -0.3869
     19 C10         4.8332    5.5458    0.3865 C.3       1 <0>        -0.0069
     20 C11         4.8732    4.0165    0.3523 C.3       1 <0>        -0.1585
     21 C12         4.8604    7.5372   -0.9473 C.3       1 <0>        -0.0081
     22 C13         6.1981    7.9960   -0.3635 C.3       1 <0>        -0.1145
     23 C14         6.1891    9.5175   -0.2020 C.3       1 <0>        -0.1113
     24 C15         7.5269    9.9763    0.3818 C.3       1 <0>        -0.1226
     25 C16         8.6611    9.5702   -0.5613 C.3       1 <0>        -0.1270
     26 C17         8.6700    8.0488   -0.7228 C.3       1 <0>        -0.1204
     27 C18         7.3323    7.5900   -1.3066 C.3       1 <0>        -0.1279
     28 H1         -0.8163    1.6808   -0.8142 H         1 <0>         0.1658
     29 H2          1.2465    3.0031   -0.5810 H         1 <0>         0.1523
     30 H3          1.4858   -1.9083   -0.9286 H         1 <0>         0.1784
     31 H4          5.9639   -0.3980   -2.0025 H         1 <0>         0.4259
     32 H5          4.5165   -0.2115   -2.8350 H         1 <0>         0.4204
     33 H6          4.5652    1.5881   -0.4607 H         1 <0>         0.4140
     34 H7          2.7380    3.7793    0.1671 H         1 <0>         0.1093
     35 H8          4.4642    3.7790   -2.3528 H         1 <0>         0.0980
     36 H9          2.6844    3.7835   -2.2964 H         1 <0>         0.1200
     37 H10         3.5689    6.0703   -2.6707 H         1 <0>         0.1380
     38 H11         2.7271    5.9582   -1.1070 H         1 <0>         0.1340
     39 H12         5.7132    5.9202    0.9095 H         1 <0>         0.1410
     40 H13         3.9344    5.8737    0.9087 H         1 <0>         0.1359
     41 H14         4.8810    3.6298    1.3714 H         1 <0>         0.1272
     42 H15         5.7718    3.6875   -0.1695 H         1 <0>         0.0984
     43 H16         4.7515    7.9296   -1.9584 H         1 <0>         0.1335
     44 H17         4.0460    7.9073   -0.3244 H         1 <0>         0.1331
     45 H18         6.3495    7.5283    0.6094 H         1 <0>         0.0947
     46 H19         6.0377    9.9852   -1.1748 H         1 <0>         0.0747
     47 H20         5.3811    9.8068    0.4699 H         1 <0>         0.0741
     48 H21         7.5205   11.0602    0.4969 H         1 <0>         0.0749
     49 H22         7.6783    9.5085    1.3547 H         1 <0>         0.0667
     50 H23         8.5097   10.0379   -1.5342 H         1 <0>         0.0668
     51 H24         9.6141    9.8970   -0.1454 H         1 <0>         0.0719
     52 H25         9.4781    7.7594   -1.3948 H         1 <0>         0.0733
     53 H26         8.8214    7.5810    0.2500 H         1 <0>         0.0670
     54 H27         7.3387    6.5061   -1.4217 H         1 <0>         0.0541
     55 H28         7.1809    8.0577   -2.2795 H         1 <0>         0.0794
     56 H29         5.6275    5.7253   -1.4827 H         1 <0>         0.4219
@<TRIPOS>BOND
     1    1    6 ar
     2    1    2 ar
     3    1   28 1
     4    2    3 ar
     5    2   29 1
     6    3    4 ar
     7    3   14 1
     8    4    5 ar
     9    4   10 1
    10    5    6 ar
    11    5   30 1
    12    6    7 1
    13    7    8 2
    14    7    9 1
    15   10   11 2
    16   10   12 2
    17   10   13 1
    18   13   31 1
    19   13   32 1
    20   14   15 1
    21   14   33 1
    22   15   20 1
    23   15   16 1
    24   15   34 1
    25   16   17 1
    26   16   35 1
    27   16   36 1
    28   17   18 1
    29   17   37 1
    30   17   38 1
    31   18   19 1
    32   18   21 1
    33   18   56 1
    34   19   20 1
    35   19   39 1
    36   19   40 1
    37   20   41 1
    38   20   42 1
    39   21   22 1
    40   21   43 1
    41   21   44 1
    42   22   27 1
    43   22   23 1
    44   22   45 1
    45   23   24 1
    46   23   46 1
    47   23   47 1
    48   24   25 1
    49   24   48 1
    50   24   49 1
    51   25   26 1
    52   25   50 1
    53   25   51 1
    54   26   27 1
    55   26   52 1
    56   26   53 1
    57   27   54 1
    58   27   55 1
@<TRIPOS>MOLECULE
ZINC04113128
   56    61     0     0     0
SMALL
USER_CHARGES
benzyl-(3-phenyl-1H-pyrazol-4-yl)BLAHone
@<TRIPOS>ATOM
      1 C1         -3.2215    4.2580    0.3504 C.ar      1 <0>        -0.0839
      2 C2         -2.2005    3.3423    0.5235 C.ar      1 <0>        -0.1132
      3 C3         -0.8852    3.7674    0.5339 C.ar      1 <0>        -0.0930
      4 C4         -0.5912    5.1089    0.3766 C.ar      1 <0>        -0.1638
      5 C5         -1.6124    6.0253    0.2089 C.ar      1 <0>        -0.0962
      6 C6         -2.9277    5.6002    0.1989 C.ar      1 <0>        -0.1139
      7 C7          0.8428    5.5723    0.3875 C.3       1 <0>         0.0506
      8 C8          2.8282    5.7719   -0.9848 C.3       1 <0>        -0.0014
      9 C9          3.4184    5.3759   -2.3411 C.3       1 <0>        -0.0854
     10 C10         2.6185    6.0791   -3.4323 C.2       1 <0>         0.0075
     11 C11         1.3957    6.5868   -3.1528 C.2       1 <0>        -0.3185
     12 S1          0.8379    7.2989   -4.6765 S.3       1 <0>         0.2285
     13 C12         2.1927    6.9290   -5.6565 C.2       1 <0>         0.1629
     14 C13         3.0781    6.2581   -4.7979 C.2       1 <0>        -0.3011
     15 C14         4.3663    5.7998   -5.3672 C.2       1 <0>         0.5960
     16 O1          5.1321    5.1057   -4.7240 O.2       1 <0>        -0.5288
     17 N1          4.6565    6.1835   -6.6278 N.am      1 <0>        -0.7346
     18 C15         3.8975    7.1947   -7.3568 C.3       1 <0>         0.4626
     19 H1          3.9839    7.0037   -8.4265 H         1 <0>         0.1268
     20 N2          2.4732    7.1709   -6.9766 N.pl3     1 <0>        -0.6670
     21 C16         4.4676    8.5557   -7.0508 C.2       1 <0>        -0.2820
     22 C17         5.1559    8.8985   -5.9402 C.2       1 <0>         0.1032
     23 N3          5.4933   10.2018   -6.0445 N.pl3     1 <0>        -0.4670
     24 H2          6.0080   10.7305   -5.3696 H         1 <0>         0.4538
     25 N4          4.9971   10.6846   -7.2622 N.2       1 <0>        -0.2659
     26 C18         4.3826    9.6948   -7.8748 C.2       1 <0>         0.1429
     27 C19         3.7149    9.7673   -9.1983 C.ar      1 <0>        -0.0270
     28 C20         3.8857    8.7409  -10.1247 C.ar      1 <0>        -0.1068
     29 C21         3.2578    8.8107  -11.3519 C.ar      1 <0>        -0.1151
     30 C22         2.4692    9.9025  -11.6669 C.ar      1 <0>        -0.1051
     31 C23         2.3007   10.9271  -10.7530 C.ar      1 <0>        -0.1147
     32 C24         2.9194   10.8648   -9.5208 C.ar      1 <0>        -0.0885
     33 C25         0.6929    6.5394   -1.8327 C.3       1 <0>         0.1124
     34 H3         -4.2489    3.9252    0.3378 H         1 <0>         0.1354
     35 H4         -2.4302    2.2941    0.6461 H         1 <0>         0.1358
     36 H5         -0.0873    3.0514    0.6646 H         1 <0>         0.1316
     37 H6         -1.3827    7.0734    0.0860 H         1 <0>         0.1309
     38 H7         -3.7257    6.3162    0.0681 H         1 <0>         0.1358
     39 H8          0.8933    6.5885    0.7785 H         1 <0>         0.1384
     40 H9          1.4339    4.9099    1.0198 H         1 <0>         0.1388
     41 H10         3.0314    6.8261   -0.7961 H         1 <0>         0.1329
     42 H11         3.2889    5.1710   -0.2008 H         1 <0>         0.1370
     43 H12         3.3481    4.2961   -2.4716 H         1 <0>         0.1085
     44 H13         4.4622    5.6854   -2.3930 H         1 <0>         0.1303
     45 H14         5.4099    5.7652   -7.0732 H         1 <0>         0.4168
     46 H15         1.7698    7.3186   -7.6279 H         1 <0>         0.4312
     47 H16         5.3945    8.2450   -5.1141 H         1 <0>         0.1716
     48 H17         4.5051    7.8902   -9.8816 H         1 <0>         0.1240
     49 H18         3.3860    8.0135  -12.0691 H         1 <0>         0.1305
     50 H19         1.9830    9.9551  -12.6298 H         1 <0>         0.1287
     51 H20         1.6836   11.7772  -11.0040 H         1 <0>         0.1297
     52 H21         2.7869   11.6651   -8.8079 H         1 <0>         0.1261
     53 H22        -0.3460    6.2444   -1.9798 H         1 <0>         0.1356
     54 H23         0.7329    7.5202   -1.3588 H         1 <0>         0.1387
     55 N5          1.3720    5.5234   -0.9925 N.4       1 <0>        -0.3925
     56 H24         1.1941    4.5916   -1.3853 H         1 <0>         0.4301
@<TRIPOS>BOND
     1    1    6 ar
     2    1    2 ar
     3    1   34 1
     4    2    3 ar
     5    2   35 1
     6    3    4 ar
     7    3   36 1
     8    4    5 ar
     9    4    7 1
    10    5    6 ar
    11    5   37 1
    12    6   38 1
    13    7   39 1
    14    7   40 1
    15    7   55 1
    16    8    9 1
    17    8   41 1
    18    8   42 1
    19    8   55 1
    20    9   10 1
    21    9   43 1
    22    9   44 1
    23   10   14 1
    24   10   11 2
    25   11   12 1
    26   11   33 1
    27   12   13 1
    28   13   20 1
    29   13   14 2
    30   14   15 1
    31   15   16 2
    32   15   17 am
    33   17   18 1
    34   17   45 1
    35   18   19 1
    36   18   20 1
    37   18   21 1
    38   20   46 1
    39   21   26 1
    40   21   22 2
    41   22   23 1
    42   22   47 1
    43   23   24 1
    44   23   25 1
    45   25   26 2
    46   26   27 1
    47   27   32 ar
    48   27   28 ar
    49   28   29 ar
    50   28   48 1
    51   29   30 ar
    52   29   49 1
    53   30   31 ar
    54   30   50 1
    55   31   32 ar
    56   31   51 1
    57   32   52 1
    58   33   53 1
    59   33   54 1
    60   33   55 1
    61   55   56 1
@<TRIPOS>MOLECULE
ZINC36298910
   38    38     0     0     0
SMALL
USER_CHARGES

@<TRIPOS>ATOM
      1 C1          1.0962   -0.2621   -1.1639 C.3       1 <0>        -0.1555
      2 C2          0.1138   -0.1123   -0.0006 C.3       1 <0>        -0.1026
      3 C3         -1.1478   -0.9281   -0.2902 C.3       1 <0>        -0.1661
      4 C4          0.7659   -0.6212    1.2865 C.3       1 <0>        -0.1456
      5 C5         -0.1607   -0.3438    2.4719 C.3       1 <0>         0.0206
      6 H1         -1.1426   -0.7735    2.2739 H         1 <0>         0.1594
      7 C6          0.4262   -0.9742    3.7365 C.3       1 <0>         0.0854
      8 N1         -0.3970   -0.6085    4.8918 N.pl3     1 <0>        -1.1294
      9 S1         -0.2326   -1.4314    6.3194 S.o2      1 <0>         2.6843
     10 O1         -1.1348   -0.8325    7.2396 O.2       1 <0>        -0.9123
     11 O2         -0.2785   -2.8149    5.9983 O.2       1 <0>        -0.9115
     12 C7          1.3909   -1.1081    6.9231 C.ar      1 <0>        -0.6755
     13 C8          2.4411   -1.9313    6.5584 C.ar      1 <0>         0.0595
     14 C9          3.7158   -1.6771    7.0321 C.ar      1 <0>        -0.0979
     15 C10         3.9402   -0.5999    7.8702 C.ar      1 <0>        -0.0159
     16 C11         2.8902    0.2232    8.2348 C.ar      1 <0>        -0.0983
     17 C12         1.6164   -0.0277    7.7571 C.ar      1 <0>         0.0641
     18 Cl1         0.2998    1.0097    8.2090 Cl        1 <0>         0.0043
     19 Br1         5.6826   -0.2530    8.5180 Br        1 <0>         0.0125
     20 Cl2         2.1595   -3.2837    5.5070 Cl        1 <0>         0.0026
     21 N2         -0.2905    1.1069    2.6629 N.4       1 <0>        -0.6391
     22 H2          1.3847   -1.3085   -1.2634 H         1 <0>         0.0671
     23 H3          0.6214    0.0731   -2.0860 H         1 <0>         0.0688
     24 H4          1.9826    0.3423   -0.9711 H         1 <0>         0.0618
     25 H5         -0.1520    0.9382    0.1175 H         1 <0>         0.0646
     26 H6         -0.8820   -1.9786   -0.4084 H         1 <0>         0.0714
     27 H7         -1.8477   -0.8214    0.5385 H         1 <0>         0.0535
     28 H8         -1.6124   -0.5655   -1.2072 H         1 <0>         0.0717
     29 H9          0.9410   -1.6940    1.2055 H         1 <0>         0.1216
     30 H10         1.7156   -0.1087    1.4399 H         1 <0>         0.0974
     31 H11         0.4401   -2.0588    3.6290 H         1 <0>         0.1317
     32 H12         1.4430   -0.6108    3.8853 H         1 <0>         0.0975
     33 H13        -1.0384    0.1157    4.8204 H         1 <0>         0.4128
     34 H14         4.5358   -2.3200    6.7477 H         1 <0>         0.1648
     35 H15         3.0656    1.0643    8.8892 H         1 <0>         0.1646
     36 H16         0.6163    1.5026    2.8610 H         1 <0>         0.4361
     37 H17        -0.6637    1.5246    1.8237 H         1 <0>         0.4400
     38 H18        -0.9133    1.2901    3.4353 H         1 <0>         0.4317
@<TRIPOS>BOND
     1    1    2 1
     2    1   22 1
     3    1   23 1
     4    1   24 1
     5    2    3 1
     6    2    4 1
     7    2   25 1
     8    3   26 1
     9    3   27 1
    10    3   28 1
    11    4    5 1
    12    4   29 1
    13    4   30 1
    14    5    6 1
    15    5    7 1
    16    5   21 1
    17    7    8 1
    18    7   31 1
    19    7   32 1
    20    8    9 1
    21    8   33 1
    22    9   10 2
    23    9   11 2
    24    9   12 1
    25   12   17 ar
    26   12   13 ar
    27   13   14 ar
    28   13   20 1
    29   14   15 ar
    30   14   34 1
    31   15   16 ar
    32   15   19 1
    33   16   17 ar
    34   16   35 1
    35   17   18 1
    36   21   36 1
    37   21   37 1
    38   21   38 1
@<TRIPOS>MOLECULE
ZINC40779561
   48    51     0     0     0
SMALL
USER_CHARGES

@<TRIPOS>ATOM
      1 C1         -0.0288    1.3718    0.2321 C.ar      1 <0>        -0.1240
      2 C2          1.1567    2.0835    0.2325 C.ar      1 <0>        -0.0882
      3 C3          2.3675    1.4166    0.1931 C.ar      1 <0>        -0.1491
      4 C4          2.3958    0.0346    0.1531 C.ar      1 <0>         0.0928
      5 C5          1.2047   -0.6833    0.1526 C.ar      1 <0>         0.1271
      6 C6         -0.0082   -0.0090    0.1922 C.ar      1 <0>        -0.0970
      7 N1          1.2287   -2.0809    0.1117 N.pl3     1 <0>        -0.6683
      8 C7          1.2568   -2.8651    1.3543 C.3       1 <0>         0.1293
      9 C8          0.0795   -3.8480    1.3403 C.3       1 <0>         0.1273
     10 N2          0.0765   -4.5589    0.0540 N.pl3     1 <0>        -0.6547
     11 C9          0.0483   -3.7746   -1.1886 C.3       1 <0>         0.1275
     12 C10         1.2200   -2.7919   -1.1745 C.3       1 <0>         0.1285
     13 C11         0.1003   -5.9477    0.0134 C.ar      1 <0>         0.4389
     14 C12        -1.0846   -6.6805    0.1111 C.ar      1 <0>         0.1225
     15 C13        -1.0040   -8.0729    0.0643 C.ar      1 <0>         0.3838
     16 N3          0.1901   -8.6454   -0.0707 N.ar      1 <0>        -0.4842
     17 C14         1.2842   -7.9171   -0.1594 C.ar      1 <0>         0.3302
     18 N4          1.2518   -6.6000   -0.1246 N.ar      1 <0>        -0.4585
     19 N5         -2.1537   -8.8505    0.1576 N.pl3     1 <0>        -0.6230
     20 C15        -2.0516  -10.2358    0.2464 C.ar      1 <0>         0.3537
     21 C16        -3.1959  -10.9991    0.4539 C.ar      1 <0>        -0.1678
     22 C17        -3.0807  -12.3748    0.5398 C.ar      1 <0>        -0.0100
     23 C18        -1.8190  -12.9435    0.4147 C.ar      1 <0>        -0.1029
     24 C19        -0.7255  -12.1244    0.2099 C.ar      1 <0>         0.1668
     25 N6         -0.8672  -10.8150    0.1272 N.ar      1 <0>        -0.5461
     26 Cl1        -1.6188  -14.6650    0.5154 Cl        1 <0>        -0.0137
     27 N7         -2.3228   -6.0340    0.2529 N.pl3     1 <0>        -0.8321
     28 F1          3.5786   -0.6170    0.1141 F         1 <0>        -0.1339
     29 H1         -0.9724    1.8961    0.2675 H         1 <0>         0.1317
     30 H2          1.1370    3.1628    0.2634 H         1 <0>         0.1355
     31 H3          3.2916    1.9755    0.1932 H         1 <0>         0.1377
     32 H4         -0.9350   -0.5635    0.1923 H         1 <0>         0.1287
     33 H5          2.1942   -3.4180    1.4168 H         1 <0>         0.0616
     34 H6          1.1655   -2.1971    2.2107 H         1 <0>         0.0839
     35 H7          0.1915   -4.5646    2.1540 H         1 <0>         0.0787
     36 H8         -0.8556   -3.3004    1.4578 H         1 <0>         0.0734
     37 H9          0.1397   -4.4427   -2.0450 H         1 <0>         0.0798
     38 H10        -0.8890   -3.2218   -1.2511 H         1 <0>         0.0737
     39 H11         1.1043   -2.0754   -1.9878 H         1 <0>         0.0834
     40 H12         2.1546   -3.3393   -1.2962 H         1 <0>         0.0621
     41 H13         2.2367   -8.4145   -0.2682 H         1 <0>         0.2426
     42 H14        -3.0265   -8.4273    0.1608 H         1 <0>         0.4470
     43 H15        -4.1613  -10.5240    0.5470 H         1 <0>         0.1625
     44 H16        -3.9516  -12.9929    0.7007 H         1 <0>         0.1680
     45 H17         0.2573  -12.5616    0.1124 H         1 <0>         0.1895
     46 H18        -2.3723   -5.0662    0.2110 H         1 <0>         0.4274
     47 H19        -3.1289   -6.5552    0.3929 H         1 <0>         0.4066
     48 H20         0.2556   -9.6127   -0.1038 H         1 <0>         0.4511
@<TRIPOS>BOND
     1    1    6 ar
     2    1    2 ar
     3    1   29 1
     4    2    3 ar
     5    2   30 1
     6    3    4 ar
     7    3   31 1
     8    4    5 ar
     9    4   28 1
    10    5    6 ar
    11    5    7 1
    12    6   32 1
    13    7   12 1
    14    7    8 1
    15    8    9 1
    16    8   33 1
    17    8   34 1
    18    9   10 1
    19    9   35 1
    20    9   36 1
    21   10   11 1
    22   10   13 1
    23   11   12 1
    24   11   37 1
    25   11   38 1
    26   12   39 1
    27   12   40 1
    28   13   18 ar
    29   13   14 ar
    30   14   15 ar
    31   14   27 1
    32   15   16 ar
    33   15   19 1
    34   16   17 ar
    35   16   48 1
    36   17   18 ar
    37   17   41 1
    38   19   20 1
    39   19   42 1
    40   20   25 ar
    41   20   21 ar
    42   21   22 ar
    43   21   43 1
    44   22   23 ar
    45   22   44 1
    46   23   24 ar
    47   23   26 1
    48   24   25 ar
    49   24   45 1
    50   27   46 1
    51   27   47 1
@<TRIPOS>MOLECULE
ZINC07126201
   45    48     0     0     0
SMALL
USER_CHARGES

@<TRIPOS>ATOM
      1 C1         -0.0187    1.5258    0.0104 C.3       1 <0>        -0.1562
      2 C2          0.0021   -0.0041    0.0020 C.3       1 <0>         0.0485
      3 O1          0.6932   -0.4774    1.1597 O.3       1 <0>        -0.2897
      4 C3          0.8021   -1.8251    1.3058 C.ar      1 <0>         0.1411
      5 C4          0.2604   -2.6729    0.3525 C.ar      1 <0>        -0.1521
      6 C5          0.3712   -4.0426    0.5023 C.ar      1 <0>        -0.1117
      7 C6          1.0219   -4.5705    1.6020 C.ar      1 <0>        -0.1063
      8 C7          1.5648   -3.7303    2.5572 C.ar      1 <0>        -0.0763
      9 C8          1.4623   -2.3556    2.4095 C.ar      1 <0>         0.1231
     10 O2          2.0003   -1.5275    3.3447 O.3       1 <0>        -0.3123
     11 C9          1.1605   -1.1510    4.4379 C.3       1 <0>         0.0338
     12 Br1         2.4528   -4.4564    4.0606 Br        1 <0>        -0.0017
     13 C10        -0.2189   -4.9625   -0.5352 C.3       1 <0>         0.4389
     14 H1         -0.9727   -4.4296   -1.1148 H         1 <0>         0.1571
     15 N1         -0.8301   -6.1314    0.1237 N.pl3     1 <0>        -0.7361
     16 C11         0.0072   -7.1655    0.5167 C.cat     1 <0>         0.7657
     17 N2          0.8702   -7.6692   -0.4573 N.pl3     1 <0>        -0.6005
     18 C12         1.3468   -6.7306   -1.3684 C.2       1 <0>         0.4571
     19 N3          0.8399   -5.4504   -1.4266 N.pl3     1 <0>        -0.5146
     20 C13         1.5048   -4.7962   -2.4235 C.ar      1 <0>         0.0886
     21 C14         1.4141   -3.5061   -2.9322 C.ar      1 <0>        -0.1169
     22 C15         2.2678   -3.1761   -3.9724 C.ar      1 <0>        -0.0731
     23 C16         3.1761   -4.0822   -4.4920 C.ar      1 <0>        -0.1197
     24 C17         3.2858   -5.3717   -4.0040 C.ar      1 <0>        -0.0407
     25 C18         2.4331   -5.7276   -2.9532 C.ar      1 <0>         0.0531
     26 N4          2.2843   -6.8807   -2.2640 N.2       1 <0>        -0.4405
     27 N5         -0.0110   -7.6404    1.7298 N.pl3     1 <0>        -0.7045
     28 H2          1.0039    1.9031    0.0027 H         1 <0>         0.0725
     29 H3         -0.5459    1.8868   -0.8726 H         1 <0>         0.0867
     30 H4         -0.5289    1.8773    0.9072 H         1 <0>         0.0706
     31 H5         -1.0205   -0.3814    0.0098 H         1 <0>         0.0674
     32 H6          0.5123   -0.3556   -0.8948 H         1 <0>         0.0684
     33 H7         -0.2487   -2.2632   -0.5074 H         1 <0>         0.1502
     34 H8          1.1061   -5.6412    1.7157 H         1 <0>         0.1145
     35 H9          0.2808   -0.6314    4.0581 H         1 <0>         0.0541
     36 H10         0.8492   -2.0432    4.9811 H         1 <0>         0.0512
     37 H11         1.7110   -0.4910    5.1084 H         1 <0>         0.1082
     38 H12        -1.7868   -6.1758    0.2777 H         1 <0>         0.4605
     39 H13         0.7086   -2.7918   -2.5342 H         1 <0>         0.1329
     40 H14         2.2229   -2.1815   -4.3909 H         1 <0>         0.1393
     41 H15         3.8185   -3.7729   -5.3032 H         1 <0>         0.1405
     42 H16         3.9976   -6.0722   -4.4152 H         1 <0>         0.1499
     43 H17        -0.6216   -7.2703    2.3864 H         1 <0>         0.4570
     44 H18         1.1202   -8.6056   -0.4966 H         1 <0>         0.4687
     45 H19         0.5860   -8.3641    1.9763 H         1 <0>         0.4535
@<TRIPOS>BOND
     1    1    2 1
     2    1   28 1
     3    1   29 1
     4    1   30 1
     5    2    3 1
     6    2   31 1
     7    2   32 1
     8    3    4 1
     9    4    9 ar
    10    4    5 ar
    11    5    6 ar
    12    5   33 1
    13    6    7 ar
    14    6   13 1
    15    7    8 ar
    16    7   34 1
    17    8    9 ar
    18    8   12 1
    19    9   10 1
    20   10   11 1
    21   11   35 1
    22   11   36 1
    23   11   37 1
    24   13   14 1
    25   13   19 1
    26   13   15 1
    27   15   16 1
    28   15   38 1
    29   16   17 1
    30   16   27 2
    31   17   18 1
    32   17   44 1
    33   18   26 2
    34   18   19 1
    35   19   20 1
    36   20   25 ar
    37   20   21 ar
    38   21   22 ar
    39   21   39 1
    40   22   23 ar
    41   22   40 1
    42   23   24 ar
    43   23   41 1
    44   24   25 ar
    45   24   42 1
    46   25   26 1
    47   27   43 1
    48   27   45 1
@<TRIPOS>MOLECULE
ZINC65423546
   54    58     0     0     0
SMALL
USER_CHARGES

@<TRIPOS>ATOM
      1 C1          0.5874    2.1483    0.4875 C.ar      1 <0>        -0.1121
      2 C2          1.8579    2.6811    0.3747 C.ar      1 <0>        -0.1161
      3 C3          2.9535    1.8428    0.2857 C.ar      1 <0>        -0.1154
      4 C4          2.7786    0.4718    0.3100 C.ar      1 <0>        -0.1000
      5 C5          1.5081   -0.0610    0.4237 C.ar      1 <0>        -0.1117
      6 C6          0.4124    0.7772    0.5113 C.ar      1 <0>        -0.1154
      7 C7          3.9729   -0.4420    0.2121 C.3       1 <0>        -0.0727
      8 C8          4.5022   -0.7418    1.6159 C.3       1 <0>        -0.1210
      9 C9          5.7147   -1.6696    1.5165 C.3       1 <0>         0.1731
     10 H1          6.5044   -1.2098    0.9222 H         1 <0>         0.1334
     11 N1          6.2154   -2.0329    2.8709 N.4       1 <0>        -0.5168
     12 C10         6.8686   -3.3434    2.6330 C.3       1 <0>         0.3427
     13 H2          7.9431   -3.2097    2.5079 H         1 <0>         0.1650
     14 N2          6.2773   -3.8763    1.3951 N.pl3     1 <0>        -0.4952
     15 N3          5.3266   -2.9861    0.9499 N.3       1 <0>        -0.4077
     16 C11         6.6226   -5.0724    0.7770 C.ar      1 <0>         0.4073
     17 C12         6.0539   -5.4045   -0.4486 C.ar      1 <0>        -0.2153
     18 C13         6.4064   -6.5978   -1.0524 C.ar      1 <0>        -0.0275
     19 C14         7.3194   -7.4223   -0.4079 C.ar      1 <0>        -0.2012
     20 C15         7.8444   -7.0303    0.8069 C.ar      1 <0>         0.1519
     21 N4          7.4938   -5.8832    1.3573 N.ar      1 <0>        -0.5198
     22 C16         6.5934   -4.2764    3.7840 C.ar      1 <0>        -0.1231
     23 C17         5.5449   -5.1715    3.7131 C.ar      1 <0>        -0.0649
     24 C18         5.2912   -6.0282    4.7687 C.ar      1 <0>        -0.0987
     25 C19         6.0857   -5.9936    5.9007 C.ar      1 <0>        -0.0842
     26 C20         7.1365   -5.1028    5.9822 C.ar      1 <0>        -0.0697
     27 C21         7.4002   -4.2412    4.9192 C.ar      1 <0>         0.0105
     28 C22         8.5323   -3.2849    4.9988 C.2       1 <0>         0.2820
     29 H3         10.4097   -0.9426    4.1503 H         1 <0>         0.4505
     30 N5          9.4405   -3.2301    5.9822 N.2       1 <0>        -0.5237
     31 C23        10.2973   -2.2735    5.7402 C.2       1 <0>         0.2986
     32 N6          9.9551   -1.6837    4.5806 N.pl3     1 <0>        -0.4719
     33 N7          8.8136   -2.3547    4.1129 N.2       1 <0>        -0.3775
     34 H4         -0.2682    2.8032    0.5615 H         1 <0>         0.1263
     35 H5          1.9946    3.7522    0.3557 H         1 <0>         0.1257
     36 H6          3.9461    2.2591    0.1969 H         1 <0>         0.1209
     37 H7          1.3714   -1.1321    0.4424 H         1 <0>         0.1234
     38 H8         -0.5802    0.3610    0.5997 H         1 <0>         0.1263
     39 H9          3.6790   -1.3734   -0.2720 H         1 <0>         0.0861
     40 H10         4.7535    0.0419   -0.3749 H         1 <0>         0.0814
     41 H11         4.7961    0.1896    2.1000 H         1 <0>         0.1022
     42 H12         3.7216   -1.2258    2.2029 H         1 <0>         0.1035
     43 H13         6.8853   -1.3534    3.1990 H         1 <0>         0.4468
     44 H14         5.3017   -2.9527   -0.0583 H         1 <0>         0.3753
     45 H15         5.3465   -4.7397   -0.9219 H         1 <0>         0.1334
     46 H16         5.9810   -6.8822   -2.0034 H         1 <0>         0.1450
     47 H17         7.6153   -8.3610   -0.8526 H         1 <0>         0.1439
     48 H18         8.5545   -7.6686    1.3117 H         1 <0>         0.1656
     49 H19         4.9213   -5.2025    2.8319 H         1 <0>         0.1369
     50 H20         4.4696   -6.7267    4.7092 H         1 <0>         0.1382
     51 H21         5.8829   -6.6646    6.7223 H         1 <0>         0.1430
     52 H22         7.7559   -5.0762    6.8665 H         1 <0>         0.1489
     53 H23        11.1360   -2.0027    6.3643 H         1 <0>         0.2362
     54 H24         5.4503   -2.1272    3.5219 H         1 <0>         0.4374
@<TRIPOS>BOND
     1    1    6 ar
     2    1    2 ar
     3    1   34 1
     4    2    3 ar
     5    2   35 1
     6    3    4 ar
     7    3   36 1
     8    4    5 ar
     9    4    7 1
    10    5    6 ar
    11    5   37 1
    12    6   38 1
    13    7    8 1
    14    7   39 1
    15    7   40 1
    16    8    9 1
    17    8   41 1
    18    8   42 1
    19    9   10 1
    20    9   15 1
    21    9   11 1
    22   11   12 1
    23   11   43 1
    24   11   54 1
    25   12   13 1
    26   12   14 1
    27   12   22 1
    28   14   15 1
    29   14   16 1
    30   15   44 1
    31   16   21 ar
    32   16   17 ar
    33   17   18 ar
    34   17   45 1
    35   18   19 ar
    36   18   46 1
    37   19   20 ar
    38   19   47 1
    39   20   21 ar
    40   20   48 1
    41   22   27 ar
    42   22   23 ar
    43   23   24 ar
    44   23   49 1
    45   24   25 ar
    46   24   50 1
    47   25   26 ar
    48   25   51 1
    49   26   27 ar
    50   26   52 1
    51   27   28 1
    52   28   30 1
    53   28   33 2
    54   29   32 1
    55   30   31 2
    56   31   53 1
    57   31   32 1
    58   32   33 1
@<TRIPOS>MOLECULE
ZINC14961736
   53    56     0     0     0
SMALL
USER_CHARGES
(2S)-1-[3-fluoro-5-(trifluoromethyl)phenyl]-3-[[5-(3-methyl-1H-indazol-5-yl)-3-pyridyl]oxy]propan-2-amine
@<TRIPOS>ATOM
      1 C1         -0.0127    1.0858    0.0080 C.3       1 <0>        -0.0805
      2 C2         -0.7181    1.5718    1.2479 C.2       1 <0>         0.1075
      3 C3         -2.1468    1.8442    1.3743 C.ar      1 <0>        -0.1771
      4 C4         -3.2329    1.7476    0.4995 C.ar      1 <0>        -0.0079
      5 C5         -4.5001    2.0849    0.9476 C.ar      1 <0>        -0.1074
      6 C6         -4.6902    2.5137    2.2669 C.ar      1 <0>        -0.0536
      7 C7         -3.6369    2.6055    3.1276 C.ar      1 <0>        -0.1373
      8 C8         -2.3526    2.2714    2.7007 C.ar      1 <0>         0.1448
      9 N1         -1.1263    2.2600    3.3127 N.pl3     1 <0>        -0.5070
     10 H1         -0.9498    2.5183    4.2625 H         1 <0>         0.4509
     11 N2         -0.1614    1.8294    2.3966 N.2       1 <0>        -0.2430
     12 C9         -5.6595    1.9917    0.0259 C.ar      1 <0>        -0.0262
     13 C10        -6.9422    2.3288    0.4638 C.ar      1 <0>        -0.1012
     14 C11        -7.9936    2.2244   -0.4377 C.ar      1 <0>         0.0692
     15 C12        -7.7352    1.7923   -1.7315 C.ar      1 <0>         0.0159
     16 N3         -6.5113    1.4822   -2.1110 N.ar      1 <0>        -0.4367
     17 C13        -5.4842    1.5720   -1.2910 C.ar      1 <0>         0.0816
     18 O1         -9.2597    2.5409   -0.0579 O.3       1 <0>        -0.3221
     19 C14       -10.2854    2.4069   -1.0438 C.3       1 <0>         0.0301
     20 C15       -11.6319    2.8050   -0.4362 C.3       1 <0>         0.0446
     21 H2        -11.8134    2.2157    0.4626 H         1 <0>         0.1571
     22 C16       -12.7467    2.5436   -1.4511 C.3       1 <0>        -0.0994
     23 C17       -14.0831    2.8192   -0.8115 C.ar      1 <0>        -0.0981
     24 C18       -14.7606    1.8042   -0.1615 C.ar      1 <0>        -0.0648
     25 C19       -15.9842    2.0566    0.4298 C.ar      1 <0>        -0.1350
     26 C20       -16.5368    3.3218    0.3627 C.ar      1 <0>        -0.0933
     27 C21       -15.8619    4.3375   -0.2924 C.ar      1 <0>         0.1224
     28 C22       -14.6336    4.0847   -0.8798 C.ar      1 <0>        -0.1482
     29 F1        -16.4013    5.5744   -0.3590 F         1 <0>        -0.1162
     30 C23       -16.7187    0.9507    1.1429 C.3       1 <0>         0.5075
     31 F2        -17.9258    1.4438    1.6498 F         1 <0>        -0.1676
     32 F3        -16.9802   -0.0899    0.2451 F         1 <0>        -0.1661
     33 F4        -15.9318    0.4715    2.1957 F         1 <0>        -0.1689
     34 H3          0.0021   -0.0041    0.0020 H         1 <0>         0.0877
     35 H4          1.0099    1.4631    0.0003 H         1 <0>         0.0842
     36 H5         -0.5399    1.4469   -0.8751 H         1 <0>         0.0839
     37 H6         -3.0850    1.4170   -0.5179 H         1 <0>         0.1363
     38 H7         -5.6817    2.7743    2.6064 H         1 <0>         0.1313
     39 H8         -3.7979    2.9374    4.1426 H         1 <0>         0.1331
     40 H9         -7.1121    2.6624    1.4769 H         1 <0>         0.1476
     41 H10        -8.5486    1.7086   -2.4371 H         1 <0>         0.1564
     42 H11        -4.4962    1.3133   -1.6421 H         1 <0>         0.1670
     43 H12       -10.0626    3.0563   -1.8904 H         1 <0>         0.0940
     44 H13       -10.3312    1.3717   -1.3821 H         1 <0>         0.1161
     45 H14       -12.6144    3.1980   -2.3127 H         1 <0>         0.1139
     46 H15       -12.7065    1.5036   -1.7751 H         1 <0>         0.1353
     47 H16       -14.3314    0.8143   -0.1121 H         1 <0>         0.1524
     48 H17       -17.4950    3.5177    0.8209 H         1 <0>         0.1636
     49 H18       -14.1063    4.8763   -1.3915 H         1 <0>         0.1495
     50 H19       -10.9250    4.4200    0.6270 H         1 <0>         0.4471
     51 H20       -11.4433    4.8003   -0.9069 H         1 <0>         0.4361
     52 N4        -11.6336    4.2351   -0.0810 N.4       1 <0>        -0.6474
     53 H21       -12.5555    4.4888    0.2933 H         1 <0>         0.4377
@<TRIPOS>BOND
     1    1    2 1
     2    1   34 1
     3    1   35 1
     4    1   36 1
     5    2   11 2
     6    2    3 1
     7    3    8 ar
     8    3    4 ar
     9    4    5 ar
    10    4   37 1
    11    5    6 ar
    12    5   12 1
    13    6    7 ar
    14    6   38 1
    15    7    8 ar
    16    7   39 1
    17    8    9 1
    18    9   10 1
    19    9   11 1
    20   12   17 ar
    21   12   13 ar
    22   13   14 ar
    23   13   40 1
    24   14   15 ar
    25   14   18 1
    26   15   16 ar
    27   15   41 1
    28   16   17 ar
    29   17   42 1
    30   18   19 1
    31   19   20 1
    32   19   43 1
    33   19   44 1
    34   20   21 1
    35   20   22 1
    36   20   52 1
    37   22   23 1
    38   22   45 1
    39   22   46 1
    40   23   28 ar
    41   23   24 ar
    42   24   25 ar
    43   24   47 1
    44   25   26 ar
    45   25   30 1
    46   26   27 ar
    47   26   48 1
    48   27   28 ar
    49   27   29 1
    50   28   49 1
    51   30   31 1
    52   30   32 1
    53   30   33 1
    54   50   52 1
    55   51   52 1
    56   52   53 1
@<TRIPOS>MOLECULE
ZINC37358816
   62    66     0     0     0
SMALL
USER_CHARGES

@<TRIPOS>ATOM
      1 C1          0.9836    0.5810   -1.5580 C.ar      1 <0>        -0.1029
      2 C2          2.0920    1.3748   -1.3298 C.ar      1 <0>        -0.1193
      3 C3          3.2762    0.8026   -0.9041 C.ar      1 <0>        -0.1033
      4 C4          3.3517   -0.5634   -0.7062 C.ar      1 <0>        -0.1271
      5 C5          2.2430   -1.3571   -0.9335 C.ar      1 <0>        -0.0842
      6 C6          1.0593   -0.7851   -1.3605 C.ar      1 <0>        -0.1194
      7 C7          4.6429   -1.1874   -0.2431 C.3       1 <0>         0.1668
      8 N1          4.6716   -1.2207    1.2213 N.pl3     1 <0>        -0.3469
      9 C8          5.1569   -0.2431    2.0060 C.2       1 <0>         0.4598
     10 C9          5.0044   -0.6509    3.3256 C.ar      1 <0>        -0.3842
     11 C10         5.3010   -0.1051    4.5949 C.ar      1 <0>         0.3851
     12 N2          4.9974   -0.8181    5.6723 N.ar      1 <0>        -0.5892
     13 C11         4.4288   -2.0172    5.5899 C.ar      1 <0>         0.6137
     14 N3          4.1189   -2.5997    4.4500 N.ar      1 <0>        -0.5790
     15 C12         4.3743   -1.9827    3.2795 C.ar      1 <0>         0.3562
     16 N4          4.1923   -2.2725    2.0104 N.2       1 <0>        -0.3026
     17 N5          4.1479   -2.6898    6.7655 N.pl3     1 <0>        -0.6994
     18 C13         3.5217   -4.0135    6.7205 C.3       1 <0>         0.1199
     19 C14         3.3214   -4.5318    8.1460 C.3       1 <0>        -0.0238
     20 N6          2.6935   -5.8590    8.1008 N.4       1 <0>        -0.3774
     21 C15         1.3470   -5.7424    7.5283 C.3       1 <0>        -0.0153
     22 C16         0.7194   -7.1324    7.4039 C.3       1 <0>        -0.1454
     23 C17         0.6318   -7.7730    8.7921 C.3       1 <0>        -0.1396
     24 C18         2.0320   -7.8217    9.4103 C.3       1 <0>        -0.1461
     25 C19         2.6110   -6.4062    9.4603 C.3       1 <0>        -0.0057
     26 C20         5.9339    1.2265    4.7195 C.ar      1 <0>        -0.1057
     27 C21         5.3318    2.3456    4.1427 C.ar      1 <0>        -0.0760
     28 C22         5.9266    3.5840    4.2622 C.ar      1 <0>        -0.1282
     29 C23         7.1190    3.7202    4.9521 C.ar      1 <0>        -0.0679
     30 C24         7.7226    2.6174    5.5266 C.ar      1 <0>        -0.1523
     31 C25         7.1343    1.3703    5.4201 C.ar      1 <0>         0.1435
     32 F1          7.7215    0.2935    5.9865 F         1 <0>        -0.1245
     33 N7          5.7078    0.9505    1.5781 N.pl3     1 <0>        -0.8272
     34 H1          0.0571    1.0287   -1.8862 H         1 <0>         0.1276
     35 H2          2.0330    2.4421   -1.4844 H         1 <0>         0.1280
     36 H3          4.1424    1.4227   -0.7265 H         1 <0>         0.1174
     37 H4          2.3021   -2.4244   -0.7792 H         1 <0>         0.1280
     38 H5          0.1932   -1.4052   -1.5385 H         1 <0>         0.1278
     39 H6          4.7152   -2.2034   -0.6311 H         1 <0>         0.1191
     40 H7          5.4833   -0.5979   -0.6096 H         1 <0>         0.1043
     41 H8          4.3655   -2.2851    7.6198 H         1 <0>         0.4195
     42 H9          2.5556   -3.9416    6.2209 H         1 <0>         0.0879
     43 H10         4.1646   -4.7011    6.1709 H         1 <0>         0.0880
     44 H11         4.2875   -4.6037    8.6455 H         1 <0>         0.1382
     45 H12         2.6785   -3.8442    8.6956 H         1 <0>         0.1364
     46 H13         0.7291   -5.1220    8.1775 H         1 <0>         0.1298
     47 H14         1.4106   -5.2833    6.5417 H         1 <0>         0.1347
     48 H15        -0.2810   -7.0435    6.9803 H         1 <0>         0.1125
     49 H16         1.3364   -7.7536    6.7546 H         1 <0>         0.0888
     50 H17        -0.0264   -7.1795    9.4266 H         1 <0>         0.0816
     51 H18         0.2377   -8.7853    8.7021 H         1 <0>         0.0941
     52 H19         1.9699   -8.2255   10.4208 H         1 <0>         0.1126
     53 H20         2.6763   -8.4572    8.8026 H         1 <0>         0.0884
     54 H21         3.6078   -6.4372    9.9001 H         1 <0>         0.1310
     55 H22         1.9662   -5.7717   10.0684 H         1 <0>         0.1293
     56 H23         4.4019    2.2419    3.6034 H         1 <0>         0.1375
     57 H24         5.4609    4.4502    3.8160 H         1 <0>         0.1413
     58 H25         7.5801    4.6928    5.0414 H         1 <0>         0.1428
     59 H26         8.6531    2.7305    6.0632 H         1 <0>         0.1458
     60 H27         5.6660    1.1954    0.6405 H         1 <0>         0.4078
     61 H28         6.1362    1.5431    2.2155 H         1 <0>         0.4223
     62 H29         3.2494   -6.4736    7.5252 H         1 <0>         0.4251
@<TRIPOS>BOND
     1    1    6 ar
     2    1    2 ar
     3    1   34 1
     4    2    3 ar
     5    2   35 1
     6    3    4 ar
     7    3   36 1
     8    4    5 ar
     9    4    7 1
    10    5    6 ar
    11    5   37 1
    12    6   38 1
    13    7    8 1
    14    7   39 1
    15    7   40 1
    16    8   16 1
    17    8    9 1
    18    9   10 2
    19    9   33 1
    20   10   15 ar
    21   10   11 ar
    22   11   12 ar
    23   11   26 1
    24   12   13 ar
    25   13   14 ar
    26   13   17 1
    27   14   15 ar
    28   15   16 2
    29   17   18 1
    30   17   41 1
    31   18   19 1
    32   18   42 1
    33   18   43 1
    34   19   20 1
    35   19   44 1
    36   19   45 1
    37   20   25 1
    38   20   21 1
    39   20   62 1
    40   21   22 1
    41   21   46 1
    42   21   47 1
    43   22   23 1
    44   22   48 1
    45   22   49 1
    46   23   24 1
    47   23   50 1
    48   23   51 1
    49   24   25 1
    50   24   52 1
    51   24   53 1
    52   25   54 1
    53   25   55 1
    54   26   31 ar
    55   26   27 ar
    56   27   28 ar
    57   27   56 1
    58   28   29 ar
    59   28   57 1
    60   29   30 ar
    61   29   58 1
    62   30   31 ar
    63   30   59 1
    64   31   32 1
    65   33   60 1
    66   33   61 1
@<TRIPOS>MOLECULE
ZINC39656181
   79    83     0     0     0
SMALL
USER_CHARGES

@<TRIPOS>ATOM
      1 C1         -1.2765    6.2697   -4.2695 C.3       1 <0>        -0.1130
      2 C2         -1.7909    5.2323   -5.2340 C.ar      1 <0>        -0.1049
      3 C3         -3.1428    4.9188   -5.2514 C.ar      1 <0>        -0.0943
      4 C4         -3.6337    3.9731   -6.1250 C.ar      1 <0>        -0.1237
      5 C5         -2.7679    3.3250   -6.9996 C.ar      1 <0>         0.0907
      6 N1         -2.9432    2.3596   -7.9655 N.pl3     1 <0>        -0.5931
      7 C6         -1.7421    2.0629   -8.5501 C.2       1 <0>         0.0639
      8 C7         -0.7690    2.8056   -7.9992 C.2       1 <0>        -0.1818
      9 C8         -1.3983    3.6468   -6.9782 C.ar      1 <0>        -0.0961
     10 C9         -0.9234    4.6118   -6.0884 C.ar      1 <0>        -0.0768
     11 C10         0.6934    2.7787   -8.3618 C.3       1 <0>        -0.0489
     12 C11         1.4363    1.8335   -7.4154 C.3       1 <0>         0.1235
     13 N2          2.8580    1.8074   -7.7680 N.am      1 <0>        -0.7268
     14 C12         3.7126    1.0380   -7.0651 C.2       1 <0>         0.5092
     15 O1          3.3046    0.3672   -6.1407 O.2       1 <0>        -0.5114
     16 C13         5.1750    1.0111   -7.4277 C.3       1 <0>        -0.1141
     17 H1          5.4203    1.8532   -8.0749 H         1 <0>         0.1155
     18 C14         6.0463    1.0414   -6.1520 C.3       1 <0>         0.1122
     19 N3          6.3465   -0.3821   -5.8697 N.am      1 <0>        -0.6140
     20 C15         6.5809   -0.9813   -7.2054 C.3       1 <0>         0.1085
     21 C16         5.5313   -0.3162   -8.1179 C.3       1 <0>        -0.0707
     22 C17         4.2942   -1.2021   -8.2301 C.3       1 <0>        -0.1455
     23 C18         4.6612   -2.4916   -8.9700 C.3       1 <0>        -0.0107
     24 N4          5.1749   -2.1624  -10.3052 N.4       1 <0>        -0.5046
     25 C19         6.4163   -1.3881  -10.1875 C.3       1 <0>        -0.0101
     26 C20         6.1236   -0.0521   -9.4988 C.3       1 <0>        -0.1338
     27 C21         6.3954   -0.9938   -4.6698 C.2       1 <0>         0.5552
     28 O2          6.7412   -2.1538   -4.5941 O.2       1 <0>        -0.5085
     29 C22         6.0204   -0.2364   -3.4221 C.3       1 <0>         0.0788
     30 H2          5.8046    0.8010   -3.6778 H         1 <0>         0.0935
     31 C23         4.7812   -0.8745   -2.7911 C.3       1 <0>        -0.1070
     32 C24         4.4447   -0.1524   -1.4849 C.3       1 <0>        -0.1502
     33 C25         3.6001   -0.7585   -3.7568 C.3       1 <0>        -0.1311
     34 O3          7.1051   -0.2821   -2.4929 O.3       1 <0>        -0.2909
     35 C26         7.3353    0.8373   -1.7576 C.ar      1 <0>         0.1256
     36 C27         8.3597    0.8559   -0.8223 C.ar      1 <0>        -0.1482
     37 C28         8.5920    1.9952   -0.0764 C.ar      1 <0>        -0.0760
     38 C29         7.8041    3.1163   -0.2610 C.ar      1 <0>        -0.1529
     39 C30         6.7821    3.1002   -1.1922 C.ar      1 <0>        -0.0781
     40 C31         6.5498    1.9654   -1.9450 C.ar      1 <0>        -0.2121
     41 H3         -0.9916    5.7870   -3.3346 H         1 <0>         0.0689
     42 H4         -0.4081    6.7677   -4.7006 H         1 <0>         0.0643
     43 H5         -2.0578    7.0046   -4.0756 H         1 <0>         0.0671
     44 H6         -3.8168    5.4209   -4.5731 H         1 <0>         0.1279
     45 H7         -4.6873    3.7356   -6.1304 H         1 <0>         0.1223
     46 H8         -1.5982    1.3384   -9.3380 H         1 <0>         0.1669
     47 H9         -3.7916    1.9503   -8.1968 H         1 <0>         0.4183
     48 H10         0.1266    4.8640   -6.0722 H         1 <0>         0.1182
     49 H11         0.8070    2.4288   -9.3879 H         1 <0>         0.0725
     50 H12         1.1084    3.7826   -8.2723 H         1 <0>         0.0771
     51 H13         1.3227    2.1835   -6.3894 H         1 <0>         0.0737
     52 H14         1.0213    0.8296   -7.5049 H         1 <0>         0.0690
     53 H15         3.1843    2.3439   -8.5073 H         1 <0>         0.3998
     54 H16         6.9674    1.5951   -6.3339 H         1 <0>         0.0936
     55 H17         5.4927    1.4844   -5.3242 H         1 <0>         0.0921
     56 H18         7.5875   -0.7510   -7.5543 H         1 <0>         0.0858
     57 H19         6.4267   -2.0598   -7.1709 H         1 <0>         0.0886
     58 H20         3.9297   -1.4463   -7.2323 H         1 <0>         0.1311
     59 H21         3.5173   -0.6739   -8.7829 H         1 <0>         0.0930
     60 H22         5.4266   -3.0273   -8.4084 H         1 <0>         0.1335
     61 H23         3.7755   -3.1196   -9.0664 H         1 <0>         0.1377
     62 H24         5.3586   -3.0148  -10.8130 H         1 <0>         0.4337
     63 H25         7.1401   -1.9500   -9.5972 H         1 <0>         0.1327
     64 H26         6.8241   -1.2027  -11.1812 H         1 <0>         0.1398
     65 H27         5.4124    0.5175  -10.0969 H         1 <0>         0.0980
     66 H28         7.0490    0.5145   -9.3954 H         1 <0>         0.1214
     67 H29         4.9795   -1.9262   -2.5843 H         1 <0>         0.0876
     68 H30         4.2464    0.8992   -1.6917 H         1 <0>         0.0579
     69 H31         3.5619   -0.6070   -1.0354 H         1 <0>         0.0656
     70 H32         5.2861   -0.2350   -0.7969 H         1 <0>         0.0616
     71 H33         3.8077   -1.3386   -4.6560 H         1 <0>         0.0553
     72 H34         2.6996   -1.1418   -3.2771 H         1 <0>         0.0588
     73 H35         3.4517    0.2874   -4.0253 H         1 <0>         0.0677
     74 H36         8.9750   -0.0198   -0.6772 H         1 <0>         0.1321
     75 H37         9.3894    2.0101    0.6519 H         1 <0>         0.1328
     76 H38         7.9870    4.0059    0.3234 H         1 <0>         0.1269
     77 H39         6.1679    3.9771   -1.3343 H         1 <0>         0.1261
     78 H40         5.7543    1.9549   -2.6753 H         1 <0>         0.1259
     79 H41         4.4868   -1.6185  -10.8041 H         1 <0>         0.4272
@<TRIPOS>BOND
     1    1   41 1
     2    1   42 1
     3    1   43 1
     4    1    2 1
     5    2    3 ar
     6    2   10 ar
     7    3    4 ar
     8    3   44 1
     9    4    5 ar
    10    4   45 1
    11    5    6 1
    12    5    9 ar
    13    6   47 1
    14    6    7 1
    15    7    8 2
    16    7   46 1
    17    8    9 1
    18    8   11 1
    19    9   10 ar
    20   10   48 1
    21   11   12 1
    22   11   49 1
    23   11   50 1
    24   12   13 1
    25   12   51 1
    26   12   52 1
    27   13   14 am
    28   13   53 1
    29   14   15 2
    30   14   16 1
    31   16   17 1
    32   16   21 1
    33   16   18 1
    34   18   19 1
    35   18   54 1
    36   18   55 1
    37   19   20 1
    38   19   27 am
    39   20   21 1
    40   20   56 1
    41   20   57 1
    42   21   26 1
    43   21   22 1
    44   22   23 1
    45   22   58 1
    46   22   59 1
    47   23   24 1
    48   23   60 1
    49   23   61 1
    50   24   25 1
    51   24   62 1
    52   24   79 1
    53   25   26 1
    54   25   63 1
    55   25   64 1
    56   26   65 1
    57   26   66 1
    58   27   28 2
    59   27   29 1
    60   29   30 1
    61   29   31 1
    62   29   34 1
    63   31   32 1
    64   31   33 1
    65   31   67 1
    66   32   68 1
    67   32   69 1
    68   32   70 1
    69   33   71 1
    70   33   72 1
    71   33   73 1
    72   34   35 1
    73   35   40 ar
    74   35   36 ar
    75   36   37 ar
    76   36   74 1
    77   37   38 ar
    78   37   75 1
    79   38   39 ar
    80   38   76 1
    81   39   40 ar
    82   39   77 1
    83   40   78 1
@<TRIPOS>MOLECULE
ZINC43548591
   67    70     0     0     0
SMALL
USER_CHARGES

@<TRIPOS>ATOM
      1 C1         -0.0154    1.9962    1.7886 C.3       1 <0>        -0.1572
      2 C2         -0.0102    0.4947    1.4946 C.3       1 <0>        -0.1213
      3 C3          0.7305   -0.2413    2.6129 C.3       1 <0>        -0.1344
      4 C4          0.7357   -1.7428    2.3189 C.3       1 <0>         0.0998
      5 N1          1.4450   -2.4476    3.3896 N.pl3     1 <0>        -0.6400
      6 C5          1.5793   -3.8263    3.3414 C.cat     1 <0>         0.3060
      7 N2          2.1721   -4.6207    4.2056 N.pl3     1 <0>        -0.5443
      8 C6          2.2251   -5.9396    4.0281 C.2       1 <0>         0.0827
      9 C7          1.6231   -6.3863    2.8977 C.2       1 <0>        -0.1740
     10 S1          1.0163   -4.8933    2.1645 S.3       1 <0>         0.3381
     11 C8          1.5136   -7.7950    2.4249 C.3       1 <0>        -0.0335
     12 C9          2.4861   -8.6615    3.2295 C.3       1 <0>        -0.0468
     13 C10         3.9236   -8.4220    2.7710 C.3       1 <0>        -0.1124
     14 C11         4.8560   -9.3579    3.5460 C.3       1 <0>        -0.1361
     15 C12         4.7222   -9.0975    5.0466 C.3       1 <0>        -0.1011
     16 H1          5.0177   -8.0710    5.2634 H         1 <0>         0.0828
     17 C13         3.2726   -9.3128    5.4883 C.3       1 <0>         0.0950
     18 H2          2.9697  -10.3355    5.2637 H         1 <0>         0.1054
     19 C14         2.3737   -8.3281    4.7215 C.3       1 <0>        -0.0580
     20 H3          1.3397   -8.4271    5.0518 H         1 <0>         0.0955
     21 C15         2.8976   -6.9114    4.9841 C.3       1 <0>        -0.0235
     22 H4          3.9761   -6.8878    4.8277 H         1 <0>         0.1155
     23 C16         2.5818   -6.5096    6.4263 C.3       1 <0>        -0.1571
     24 O1          3.1591   -9.0767    6.8931 O.3       1 <0>        -0.5623
     25 C17         5.6321  -10.0603    5.8121 C.3       1 <0>        -0.1141
     26 H5          5.5676   -9.8498    6.8797 H         1 <0>         0.0980
     27 C18         7.0770   -9.8783    5.3428 C.3       1 <0>        -0.1469
     28 C19         5.1945  -11.4787    5.5524 C.2       1 <0>         0.5200
     29 O2          4.3198  -11.7050    4.7433 O.2       1 <0>        -0.5289
     30 N3          5.7751  -12.4959    6.2193 N.am      1 <0>        -0.6971
     31 C20         5.3497  -13.8749    5.9668 C.3       1 <0>         0.0731
     32 C21         5.1538  -14.7870    7.1794 C.3       1 <0>        -0.1903
     33 C22         6.3572  -14.9893    6.2565 C.3       1 <0>        -0.1871
     34 C23         2.1436  -10.1371    3.0148 C.3       1 <0>        -0.1681
     35 H6          1.0110    2.3590    1.8447 H         1 <0>         0.0579
     36 H7         -0.5431    2.5206    0.9920 H         1 <0>         0.0648
     37 H8         -0.5176    2.1788    2.7386 H         1 <0>         0.0579
     38 H9         -1.0365    0.1320    1.4386 H         1 <0>         0.0713
     39 H10         0.4921    0.3122    0.5447 H         1 <0>         0.0712
     40 H11         1.7569    0.1215    2.6689 H         1 <0>         0.0809
     41 H12         0.2282   -0.0588    3.5629 H         1 <0>         0.0810
     42 H13        -0.2906   -2.1056    2.2628 H         1 <0>         0.0959
     43 H14         1.2380   -1.9253    1.3689 H         1 <0>         0.0959
     44 H15         1.8206   -1.9494    4.1324 H         1 <0>         0.4282
     45 H16         0.4950   -8.1528    2.5754 H         1 <0>         0.1074
     46 H17         1.7685   -7.8461    1.3664 H         1 <0>         0.1057
     47 H18         4.0051   -8.6277    1.7036 H         1 <0>         0.0750
     48 H19         4.2012   -7.3863    2.9667 H         1 <0>         0.0561
     49 H20         4.5894  -10.3930    3.3328 H         1 <0>         0.1080
     50 H21         5.8862   -9.1795    3.2379 H         1 <0>         0.0674
     51 H22         1.5260   -6.6876    6.6302 H         1 <0>         0.0661
     52 H23         3.1890   -7.1029    7.1100 H         1 <0>         0.1087
     53 H24         2.8056   -5.4520    6.5660 H         1 <0>         0.0401
     54 H25         3.7577   -9.6123    7.4316 H         1 <0>         0.3752
     55 H26         7.3606   -8.8301    5.4378 H         1 <0>         0.0707
     56 H27         7.7381  -10.4905    5.9562 H         1 <0>         0.0641
     57 H28         7.1616  -10.1845    4.3002 H         1 <0>         0.0682
     58 H29         6.4747  -12.3150    6.8664 H         1 <0>         0.4030
     59 H30         4.6775  -14.0118    5.1198 H         1 <0>         0.1399
     60 H31         5.3415  -14.3611    8.1651 H         1 <0>         0.0977
     61 H32         4.3525  -15.5242    7.1305 H         1 <0>         0.1050
     62 H33         6.3475  -15.8596    5.6003 H         1 <0>         0.1065
     63 H34         7.3366  -14.6964    6.6349 H         1 <0>         0.0984
     64 H35         2.2290  -10.3796    1.9556 H         1 <0>         0.0628
     65 H36         2.8343  -10.7573    3.5863 H         1 <0>         0.1039
     66 H37         1.1237  -10.3259    3.3497 H         1 <0>         0.0580
     67 H38         2.5830   -4.2348    4.9950 H         1 <0>         0.4293
@<TRIPOS>BOND
     1    1    2 1
     2    1   35 1
     3    1   36 1
     4    1   37 1
     5    2    3 1
     6    2   38 1
     7    2   39 1
     8    3    4 1
     9    3   40 1
    10    3   41 1
    11    4    5 1
    12    4   42 1
    13    4   43 1
    14    5    6 1
    15    5   44 1
    16    6   10 1
    17    6    7 2
    18    7    8 1
    19    7   67 1
    20    8   21 1
    21    8    9 2
    22    9   10 1
    23    9   11 1
    24   11   12 1
    25   11   45 1
    26   11   46 1
    27   12   19 1
    28   12   13 1
    29   12   34 1
    30   13   14 1
    31   13   47 1
    32   13   48 1
    33   14   15 1
    34   14   49 1
    35   14   50 1
    36   15   16 1
    37   15   17 1
    38   15   25 1
    39   17   18 1
    40   17   19 1
    41   17   24 1
    42   19   20 1
    43   19   21 1
    44   21   22 1
    45   21   23 1
    46   23   51 1
    47   23   52 1
    48   23   53 1
    49   24   54 1
    50   25   26 1
    51   25   27 1
    52   25   28 1
    53   27   55 1
    54   27   56 1
    55   27   57 1
    56   28   29 2
    57   28   30 am
    58   30   31 1
    59   30   58 1
    60   31   33 1
    61   31   32 1
    62   31   59 1
    63   32   33 1
    64   32   60 1
    65   32   61 1
    66   33   62 1
    67   33   63 1
    68   34   64 1
    69   34   65 1
    70   34   66 1
@<TRIPOS>MOLECULE
ZINC64652821
   56    59     0     0     0
SMALL
USER_CHARGES

@<TRIPOS>ATOM
      1 C1          0.9663    1.5755   -1.8452 C.ar      1 <0>        -0.1505
      2 C2          2.2461    2.1434   -1.9107 C.ar      1 <0>         0.0549
      3 C3          3.3724    1.4287   -1.7041 C.ar      1 <0>        -0.2099
      4 C4          3.2980    0.0401   -1.4058 C.ar      1 <0>         0.3279
      5 N1          4.2282   -0.8531   -1.1701 N.pl3     1 <0>        -0.5851
      6 C5          3.5821   -2.1461   -0.9187 C.3       1 <0>         0.0603
      7 C6          2.0952   -1.8973   -1.0396 C.2       1 <0>         0.0713
      8 C7          1.9576   -0.5836   -1.3308 C.ar      1 <0>        -0.1678
      9 C8          0.7833    0.2645   -1.5682 C.ar      1 <0>        -0.0122
     10 C9          0.9906   -2.9084   -0.8707 C.3       1 <0>        -0.1053
     11 C10         0.7659   -3.6439   -2.1934 C.3       1 <0>         0.1298
     12 N2         -0.3079   -4.6269   -2.0292 N.am      1 <0>        -0.7369
     13 C11        -0.6813   -5.3973   -3.0701 C.2       1 <0>         0.5709
     14 O1         -0.1260   -5.2763   -4.1472 O.2       1 <0>        -0.5647
     15 C12        -1.7179   -6.3463   -2.9116 C.2       1 <0>        -0.3524
     16 C13        -2.1717   -7.0341   -3.9795 C.2       1 <0>         0.2534
     17 C14        -3.1756   -8.1735   -3.8474 C.3       1 <0>        -0.0590
     18 S1         -2.7057   -9.1748   -5.3246 S.3       1 <0>        -0.2266
     19 C15        -1.8791   -7.8186   -6.2587 C.3       1 <0>         0.1846
     20 H1         -2.4976   -7.4892   -7.0936 H         1 <0>         0.1546
     21 N3         -1.7724   -6.7568   -5.2379 N.pl3     1 <0>        -0.6938
     22 S2         -0.2406   -8.3386   -6.8380 S.3       1 <0>        -0.0901
     23 C16         0.6422   -8.7826   -5.3168 C.3       1 <0>        -0.1350
     24 C17         2.0369   -9.2386   -5.6602 C.2       1 <0>         0.5339
     25 O2          2.3997   -9.2618   -6.8174 O.2       1 <0>        -0.4927
     26 N4          2.8811   -9.6207   -4.6816 N.am      1 <0>        -0.6688
     27 C18         4.2095   -9.9384   -4.9877 C.ar      1 <0>         0.1486
     28 C19         4.8716  -10.9259   -4.2702 C.ar      1 <0>        -0.1311
     29 C20         6.1823  -11.2374   -4.5742 C.ar      1 <0>        -0.0886
     30 C21         6.8358  -10.5664   -5.5928 C.ar      1 <0>        -0.0482
     31 C22         6.1783   -9.5819   -6.3094 C.ar      1 <0>        -0.0891
     32 C23         4.8658   -9.2705   -6.0132 C.ar      1 <0>        -0.1095
     33 Cl1         8.4835  -10.9599   -5.9721 Cl        1 <0>        -0.0635
     34 H2          0.1035    2.2023   -2.0160 H         1 <0>         0.1581
     35 H3          2.3347    3.1959   -2.1362 H         1 <0>         0.1613
     36 H4          4.3353    1.9139   -1.7661 H         1 <0>         0.1609
     37 H5          3.9023   -2.8769   -1.6614 H         1 <0>         0.1741
     38 H6          3.8237   -2.4982    0.0842 H         1 <0>         0.1747
     39 H7         -0.2120   -0.1523   -1.5223 H         1 <0>         0.1604
     40 H8          1.2696   -3.6258   -0.0989 H         1 <0>         0.1181
     41 H9          0.0728   -2.3984   -0.5781 H         1 <0>         0.1156
     42 H10         0.4869   -2.9266   -2.9652 H         1 <0>         0.0760
     43 H11         1.6837   -4.1539   -2.4860 H         1 <0>         0.0744
     44 H12        -0.7502   -4.7232   -1.1713 H         1 <0>         0.4056
     45 H13        -3.0226   -8.7323   -2.9241 H         1 <0>         0.1374
     46 H14        -2.1462   -6.5202   -1.9355 H         1 <0>         0.1407
     47 H15        -4.2005   -7.8105   -3.9235 H         1 <0>         0.1290
     48 H16        -1.4215   -5.8815   -5.4651 H         1 <0>         0.4305
     49 H17         0.6952   -7.9138   -4.6607 H         1 <0>         0.1204
     50 H18         0.1109   -9.5884   -4.8104 H         1 <0>         0.1253
     51 H19         2.5682   -9.6755   -3.7651 H         1 <0>         0.4135
     52 H20         4.3621  -11.4496   -3.4749 H         1 <0>         0.1370
     53 H21         6.6977  -12.0051   -4.0162 H         1 <0>         0.1405
     54 H22         6.6907   -9.0594   -7.1037 H         1 <0>         0.1386
     55 H23         4.3517   -8.5052   -6.5757 H         1 <0>         0.1426
     56 H24         5.1838   -0.6871   -1.1635 H         1 <0>         0.4562
@<TRIPOS>BOND
     1    1    9 ar
     2    1    2 ar
     3    1   34 1
     4    2    3 ar
     5    2   35 1
     6    3    4 ar
     7    3   36 1
     8    4    8 ar
     9    4    5 2
    10    5    6 1
    11    5   56 1
    12    6    7 1
    13    6   37 1
    14    6   38 1
    15    7    8 2
    16    7   10 1
    17    8    9 ar
    18    9   39 1
    19   10   11 1
    20   10   40 1
    21   10   41 1
    22   11   12 1
    23   11   42 1
    24   11   43 1
    25   12   44 1
    26   12   13 am
    27   13   14 2
    28   13   15 1
    29   15   46 1
    30   15   16 2
    31   16   17 1
    32   16   21 1
    33   17   18 1
    34   17   47 1
    35   17   45 1
    36   18   19 1
    37   19   20 1
    38   19   22 1
    39   19   21 1
    40   21   48 1
    41   22   23 1
    42   23   24 1
    43   23   49 1
    44   23   50 1
    45   24   25 2
    46   24   26 am
    47   26   27 1
    48   26   51 1
    49   27   32 ar
    50   27   28 ar
    51   28   29 ar
    52   28   52 1
    53   29   30 ar
    54   29   53 1
    55   30   31 ar
    56   30   33 1
    57   31   32 ar
    58   31   54 1
    59   32   55 1
@<TRIPOS>MOLECULE
ZINC15451008
   71    72     0     0     0
SMALL
USER_CHARGES
N-(6-amino-1-isobutyl-2,4-dioxo-pyrimidin-5-yl)-2-[3-(4-fluorophenoxy)propyl-methyl-amino]-N-isobutyl-acetamide
@<TRIPOS>ATOM
      1 C1          5.8792   16.6754   -2.8749 C.3       1 <0>        -0.1478
      2 C2          5.2414   15.5346   -2.0795 C.3       1 <0>        -0.1158
      3 C3          5.4072   14.2221   -2.8481 C.3       1 <0>        -0.1546
      4 C4          5.9268   15.4177   -0.7166 C.3       1 <0>         0.1057
      5 N1          5.2395   14.4065    0.0905 N.am      1 <0>        -0.5341
      6 C5          5.6438   13.0931    0.0302 C.2       1 <0>         0.5055
      7 C6          4.9877   12.1505    0.7951 C.2       1 <0>        -0.1683
      8 C7          3.9181   12.5631    1.6117 C.2       1 <0>         0.5776
      9 O1          3.3179   11.7502    2.2943 O.2       1 <0>        -0.5186
     10 N2          3.5652   13.8632    1.6381 N.am      1 <0>        -0.6621
     11 H1          2.8105   14.1587    2.2239 H         1 <0>         0.4445
     12 C8          4.2163   14.7679    0.8857 C.2       1 <0>         0.7090
     13 O2          3.8742   15.9342    0.9253 O.2       1 <0>        -0.5163
     14 N3          5.3785   10.7953    0.7549 N.am      1 <0>        -0.4956
     15 C9          6.7238   10.4078    1.1866 C.3       1 <0>         0.0886
     16 C10         6.6811    9.9611    2.6493 C.3       1 <0>        -0.1079
     17 C11         8.0470    9.4011    3.0516 C.3       1 <0>        -0.1523
     18 C12         6.3388   11.1583    3.5384 C.3       1 <0>        -0.1560
     19 C13         4.5132    9.8563    0.3189 C.2       1 <0>         0.5041
     20 O3          3.4321   10.1857   -0.1225 O.2       1 <0>        -0.5038
     21 C14         4.8895    8.3983    0.3802 C.3       1 <0>        -0.0278
     22 C15         3.5536    7.8271   -1.5568 C.3       1 <0>        -0.0563
     23 C16         4.0074    6.1567    0.1362 C.3       1 <0>        -0.0012
     24 C17         2.7328    5.3688   -0.1729 C.3       1 <0>        -0.1522
     25 C18         2.9732    3.8825    0.0995 C.3       1 <0>         0.0623
     26 O4          1.7828    3.1467   -0.1891 O.3       1 <0>        -0.3096
     27 C19         1.8273    1.8014    0.0015 C.ar      1 <0>         0.1109
     28 C20         0.7072    1.0259   -0.2593 C.ar      1 <0>        -0.1157
     29 C21         0.7540   -0.3412   -0.0656 C.ar      1 <0>        -0.1107
     30 C22         1.9182   -0.9372    0.3886 C.ar      1 <0>         0.0724
     31 C23         3.0370   -0.1644    0.6492 C.ar      1 <0>        -0.1137
     32 C24         2.9929    1.2030    0.4568 C.ar      1 <0>        -0.1789
     33 F1          1.9625   -2.2742    0.5780 F         1 <0>        -0.1342
     34 N4          6.6893   12.7241   -0.7819 N.pl3     1 <0>        -0.8302
     35 H2          6.9400   16.4698   -3.0181 H         1 <0>         0.0602
     36 H3          5.3910   16.7587   -3.8458 H         1 <0>         0.0678
     37 H4          5.7611   17.6105   -2.3274 H         1 <0>         0.0655
     38 H5          4.1806   15.7403   -1.9363 H         1 <0>         0.0858
     39 H6          6.4680   14.0164   -2.9913 H         1 <0>         0.0564
     40 H7          4.9528   13.4093   -2.2814 H         1 <0>         0.0520
     41 H8          4.9190   14.3054   -3.8190 H         1 <0>         0.0675
     42 H9          5.8859   16.3796   -0.2057 H         1 <0>         0.1181
     43 H10         6.9672   15.1247   -0.8571 H         1 <0>         0.0937
     44 H11         7.0819    9.5863    0.5661 H         1 <0>         0.0869
     45 H12         7.3969   11.2592    1.0861 H         1 <0>         0.0979
     46 H13         5.9216    9.1890    2.7714 H         1 <0>         0.0685
     47 H14         8.8065   10.1733    2.9295 H         1 <0>         0.0627
     48 H15         8.0166    9.0829    4.0936 H         1 <0>         0.0671
     49 H16         8.2908    8.5482    2.4182 H         1 <0>         0.0571
     50 H17         5.3244   11.4933    3.3221 H         1 <0>         0.0685
     51 H18         6.4090   10.8649    4.5858 H         1 <0>         0.0605
     52 H19         7.0393   11.9698    3.3407 H         1 <0>         0.0540
     53 H20         5.1030    8.1212    1.4125 H         1 <0>         0.1594
     54 H21         5.7741    8.2253   -0.2328 H         1 <0>         0.1606
     55 H22         2.6808    7.2652   -1.8893 H         1 <0>         0.1263
     56 H23         3.3853    8.8913   -1.7224 H         1 <0>         0.1376
     57 H24         4.4292    7.5056   -2.1207 H         1 <0>         0.1220
     58 H25         4.2753    6.0179    1.1836 H         1 <0>         0.1348
     59 H26         4.8188    5.7978   -0.4970 H         1 <0>         0.1383
     60 H27         2.4649    5.5075   -1.2203 H         1 <0>         0.1019
     61 H28         1.9213    5.7276    0.4603 H         1 <0>         0.1016
     62 H29         3.2411    3.7438    1.1470 H         1 <0>         0.0742
     63 H30         3.7847    3.5237   -0.5336 H         1 <0>         0.0739
     64 H31        -0.1997    1.4900   -0.6177 H         1 <0>         0.1439
     65 H32        -0.1181   -0.9452   -0.2682 H         1 <0>         0.1481
     66 H33         3.9445   -0.6306    1.0034 H         1 <0>         0.1420
     67 H34         3.8655    1.8057    0.6609 H         1 <0>         0.1355
     68 H35         6.9060   11.7857   -0.8973 H         1 <0>         0.4206
     69 H36         7.2106   13.4021   -1.2397 H         1 <0>         0.4147
     70 N5          3.7527    7.5914   -0.1113 N.4       1 <0>        -0.3820
     71 H37         2.9028    7.8710    0.3924 H         1 <0>         0.4395
@<TRIPOS>BOND
     1    1    2 1
     2    1   35 1
     3    1   36 1
     4    1   37 1
     5    2    3 1
     6    2    4 1
     7    2   38 1
     8    3   39 1
     9    3   40 1
    10    3   41 1
    11    4    5 1
    12    4   42 1
    13    4   43 1
    14    5   12 am
    15    5    6 1
    16    6    7 2
    17    6   34 1
    18    7    8 1
    19    7   14 1
    20    8    9 2
    21    8   10 am
    22   10   11 1
    23   10   12 am
    24   12   13 2
    25   14   15 1
    26   14   19 am
    27   15   16 1
    28   15   44 1
    29   15   45 1
    30   16   17 1
    31   16   18 1
    32   16   46 1
    33   17   47 1
    34   17   48 1
    35   17   49 1
    36   18   50 1
    37   18   51 1
    38   18   52 1
    39   19   20 2
    40   19   21 1
    41   21   53 1
    42   21   54 1
    43   21   70 1
    44   22   55 1
    45   22   56 1
    46   22   57 1
    47   22   70 1
    48   23   24 1
    49   23   58 1
    50   23   59 1
    51   23   70 1
    52   24   25 1
    53   24   60 1
    54   24   61 1
    55   25   26 1
    56   25   62 1
    57   25   63 1
    58   26   27 1
    59   27   32 ar
    60   27   28 ar
    61   28   29 ar
    62   28   64 1
    63   29   30 ar
    64   29   65 1
    65   30   31 ar
    66   30   33 1
    67   31   32 ar
    68   31   66 1
    69   32   67 1
    70   34   68 1
    71   34   69 1
    72   70   71 1
@<TRIPOS>MOLECULE
ZINC39197611
   65    67     0     0     0
SMALL
USER_CHARGES

@<TRIPOS>ATOM
      1 C1         -0.6635    3.1292   -0.1811 C.3       1 <0>        -0.1770
      2 C2         -0.1429    1.7989    0.3669 C.3       1 <0>         0.1053
      3 N1          0.8444    1.2414   -0.5609 N.pl3     1 <0>        -0.9949
      4 C3          2.2453    1.6622   -0.4797 C.3       1 <0>         0.1218
      5 C4          2.9714    0.8179    0.5696 C.3       1 <0>        -0.1773
      6 S1          0.3767    0.1356   -1.7014 S.o2      1 <0>         2.6897
      7 O1          1.5364   -0.6116   -2.0420 O.2       1 <0>        -0.9484
      8 O2         -0.8077   -0.4775   -1.2110 O.2       1 <0>        -0.9481
      9 C5         -0.0829    1.0374   -3.1437 C.ar      1 <0>        -0.6954
     10 C6         -1.3896    1.4598   -3.3057 C.ar      1 <0>         0.0212
     11 C7         -1.7563    2.1673   -4.4353 C.ar      1 <0>        -0.2061
     12 C8         -0.8137    2.4550   -5.4092 C.ar      1 <0>         0.1695
     13 C9          0.5029    2.0302   -5.2464 C.ar      1 <0>         0.0757
     14 C10         0.8646    1.3256   -4.1075 C.ar      1 <0>         0.0099
     15 N2          1.4605    2.3183   -6.2280 N.am      1 <0>        -0.6321
     16 C11         2.5540    1.5403   -6.3515 C.2       1 <0>         0.4965
     17 O3          2.6613    0.5343   -5.6824 O.2       1 <0>        -0.5042
     18 C12         3.6434    1.9202   -7.3210 C.3       1 <0>        -0.0322
     19 N3          4.7170    0.9189   -7.2682 N.4       1 <0>        -0.3699
     20 C13         4.2099   -0.3726   -7.7564 C.3       1 <0>        -0.0121
     21 C14         5.2289   -1.4588   -7.4101 C.3       1 <0>        -0.1022
     22 C15         6.5998   -1.0405   -7.8780 C.ar      1 <0>        -0.0754
     23 C16         7.5899   -2.0063   -7.9767 C.ar      1 <0>        -0.1189
     24 C17         8.8619   -1.6624   -8.3986 C.ar      1 <0>         0.1147
     25 C18         9.1455   -0.3393   -8.7250 C.ar      1 <0>         0.0953
     26 C19         8.1534    0.6196   -8.6265 C.ar      1 <0>        -0.1045
     27 C20         6.8789    0.2699   -8.2041 C.ar      1 <0>        -0.1241
     28 C21         5.8297    1.3474   -8.1204 C.3       1 <0>         0.0841
     29 H1          5.4541    1.5618   -9.1209 H         1 <0>         0.1485
     30 C22         6.4544    2.6152   -7.5346 C.3       1 <0>        -0.1875
     31 O4         10.3932    0.0094   -9.1387 O.3       1 <0>        -0.4810
     32 O5          9.8305   -2.6123   -8.4936 O.3       1 <0>        -0.4818
     33 O6         -1.1731    3.1500   -6.5213 O.3       1 <0>        -0.3161
     34 C23        -2.5404    3.5530   -6.6208 C.3       1 <0>         0.0217
     35 H2          0.1668    3.8269   -0.2906 H         1 <0>         0.0612
     36 H3         -1.1301    2.9644   -1.1523 H         1 <0>         0.0528
     37 H4         -1.3980    3.5440    0.5092 H         1 <0>         0.0746
     38 H5          0.3237    1.9637    1.3381 H         1 <0>         0.0900
     39 H6         -0.9731    1.1012    0.4764 H         1 <0>         0.0964
     40 H7          2.7226    1.5253   -1.4500 H         1 <0>         0.0756
     41 H8          2.2930    2.7137   -0.1964 H         1 <0>         0.0820
     42 H9          2.4941    0.9548    1.5399 H         1 <0>         0.0635
     43 H10         2.9237   -0.2335    0.2863 H         1 <0>         0.0645
     44 H11         4.0137    1.1310    0.6300 H         1 <0>         0.0703
     45 H12        -2.1258    1.2361   -2.5478 H         1 <0>         0.1508
     46 H13        -2.7778    2.4954   -4.5589 H         1 <0>         0.1507
     47 H14         1.8855    0.9985   -3.9761 H         1 <0>         0.1665
     48 H15         1.3363    3.0778   -6.8185 H         1 <0>         0.4256
     49 H16         3.2337    1.9608   -8.3303 H         1 <0>         0.1659
     50 H17         4.0445    2.8974   -7.0521 H         1 <0>         0.1676
     51 H18         3.2578   -0.5974   -7.2757 H         1 <0>         0.1508
     52 H19         4.0756   -0.3281   -8.8372 H         1 <0>         0.1319
     53 H20         5.2449   -1.6098   -6.3307 H         1 <0>         0.1113
     54 H21         4.9470   -2.3902   -7.9012 H         1 <0>         0.1265
     55 H22         7.3672   -3.0320   -7.7225 H         1 <0>         0.1473
     56 H23         8.3723    1.6465   -8.8794 H         1 <0>         0.1465
     57 H24         6.8226    2.4080   -6.5298 H         1 <0>         0.0882
     58 H25         7.2827    2.9372   -8.1659 H         1 <0>         0.1125
     59 H26         5.7031    3.4037   -7.4909 H         1 <0>         0.0859
     60 H27        10.5201   -0.0462  -10.0957 H         1 <0>         0.3983
     61 H28         9.8752   -3.0434   -9.3581 H         1 <0>         0.4006
     62 H29        -2.6919    4.0973   -7.5530 H         1 <0>         0.1119
     63 H30        -3.1810    2.6712   -6.6068 H         1 <0>         0.0663
     64 H31        -2.7914    4.1978   -5.7787 H         1 <0>         0.0665
     65 H32         5.0391    0.8190   -6.3172 H         1 <0>         0.4328
@<TRIPOS>BOND
     1    1    2 1
     2    1   35 1
     3    1   36 1
     4    1   37 1
     5    2    3 1
     6    2   38 1
     7    2   39 1
     8    3    4 1
     9    3    6 1
    10    4    5 1
    11    4   40 1
    12    4   41 1
    13    5   42 1
    14    5   43 1
    15    5   44 1
    16    6    7 2
    17    6    8 2
    18    6    9 1
    19    9   14 ar
    20    9   10 ar
    21   10   11 ar
    22   10   45 1
    23   11   12 ar
    24   11   46 1
    25   12   13 ar
    26   12   33 1
    27   13   14 ar
    28   13   15 1
    29   14   47 1
    30   15   16 am
    31   15   48 1
    32   16   17 2
    33   16   18 1
    34   18   19 1
    35   18   49 1
    36   18   50 1
    37   19   28 1
    38   19   20 1
    39   19   65 1
    40   20   21 1
    41   20   51 1
    42   20   52 1
    43   21   22 1
    44   21   53 1
    45   21   54 1
    46   22   27 ar
    47   22   23 ar
    48   23   24 ar
    49   23   55 1
    50   24   25 ar
    51   24   32 1
    52   25   26 ar
    53   25   31 1
    54   26   27 ar
    55   26   56 1
    56   27   28 1
    57   28   29 1
    58   28   30 1
    59   30   57 1
    60   30   58 1
    61   30   59 1
    62   31   60 1
    63   32   61 1
    64   33   34 1
    65   34   62 1
    66   34   63 1
    67   34   64 1
@<TRIPOS>MOLECULE
ZINC39684162
   75    79     0     0     0
SMALL
USER_CHARGES

@<TRIPOS>ATOM
      1 C1         -2.4253   -1.8678    1.6461 C.3       1 <0>        -0.1152
      2 C2         -3.5006   -1.0237    1.0120 C.ar      1 <0>        -0.0923
      3 C3         -3.7207    0.2625    1.4544 C.ar      1 <0>        -0.0993
      4 C4         -4.7083    1.0499    0.8790 C.ar      1 <0>        -0.1350
      5 C5         -5.4800    0.5622   -0.1379 C.ar      1 <0>        -0.0808
      6 C6         -5.2739   -0.7380   -0.6021 C.ar      1 <0>        -0.0973
      7 C7         -5.8976   -1.5583   -1.6433 C.2       1 <0>        -0.1814
      8 C8         -5.2726   -2.7463   -1.6339 C.2       1 <0>         0.0632
      9 N1         -4.2996   -2.7540   -0.6718 N.pl3     1 <0>        -0.5913
     10 C9         -4.2705   -1.5384   -0.0257 C.ar      1 <0>         0.0975
     11 C10        -7.0270   -1.1468   -2.5522 C.3       1 <0>        -0.0473
     12 C11        -6.4616   -0.4014   -3.7629 C.3       1 <0>         0.1219
     13 N2         -7.5596   -0.0013   -4.6464 N.am      1 <0>        -0.7307
     14 C12        -7.2978    0.6732   -5.7836 C.2       1 <0>         0.5125
     15 O1         -6.1534    0.9489   -6.0754 O.2       1 <0>        -0.5113
     16 C13        -8.4272    1.0847   -6.6925 C.3       1 <0>        -0.1158
     17 H1         -9.3328    1.2655   -6.1134 H         1 <0>         0.1183
     18 C14        -8.0399    2.3477   -7.4938 C.3       1 <0>         0.1032
     19 N3         -7.5230    1.8296   -8.7824 N.am      1 <0>        -0.6136
     20 C15        -8.4195    0.6951   -9.1099 C.3       1 <0>         0.1090
     21 C16        -8.6792    0.0035   -7.7568 C.3       1 <0>        -0.0732
     22 C17       -10.1224   -0.4857   -7.6819 C.3       1 <0>        -0.1335
     23 C18       -10.3326   -1.6010   -8.7099 C.3       1 <0>        -0.0103
     24 N4         -9.4056   -2.7050   -8.4334 N.4       1 <0>        -0.5043
     25 C19        -8.0202   -2.2489   -8.5988 C.3       1 <0>        -0.0093
     26 C20        -7.7122   -1.1611   -7.5661 C.3       1 <0>        -0.1463
     27 C21        -6.4749    2.2868   -9.4958 C.2       1 <0>         0.5974
     28 O2         -6.2300    1.8128  -10.5879 O.2       1 <0>        -0.5198
     29 C22        -5.6231    3.3651   -8.9500 C.ar      1 <0>        -0.1201
     30 C23        -6.1904    4.3883   -8.1883 C.ar      1 <0>        -0.0863
     31 C24        -5.3926    5.3926   -7.6801 C.ar      1 <0>        -0.1142
     32 C25        -4.0312    5.3895   -7.9227 C.ar      1 <0>        -0.0859
     33 C26        -3.4581    4.3763   -8.6789 C.ar      1 <0>         0.0812
     34 C27        -4.2490    3.3604   -9.1894 C.ar      1 <0>        -0.0262
     35 C28        -3.6277    2.2565  -10.0057 C.3       1 <0>        -0.1158
     36 O3         -2.1193    4.3784   -8.9141 O.3       1 <0>        -0.2950
     37 C29        -1.6791    4.9500  -10.0465 C.2       1 <0>         0.4577
     38 O4         -2.4543    5.5236  -10.7745 O.2       1 <0>        -0.4914
     39 C30        -0.2184    4.8761  -10.4094 C.3       1 <0>        -0.1450
     40 H2         -1.4845   -1.7155    1.1170 H         1 <0>         0.0709
     41 H3         -2.3055   -1.5793    2.6904 H         1 <0>         0.0736
     42 H4         -2.7079   -2.9190    1.5897 H         1 <0>         0.0573
     43 H5         -3.1188    0.6620    2.2573 H         1 <0>         0.1276
     44 H6         -4.8684    2.0558    1.2381 H         1 <0>         0.1245
     45 H7         -6.2469    1.1806   -0.5807 H         1 <0>         0.1185
     46 H8         -5.5038   -3.5736   -2.2885 H         1 <0>         0.1668
     47 H9         -3.7151   -3.5030   -0.4764 H         1 <0>         0.4175
     48 H10        -7.5635   -2.0336   -2.8896 H         1 <0>         0.0715
     49 H11        -7.7103   -0.4933   -2.0098 H         1 <0>         0.0775
     50 H12        -5.9252    0.4855   -3.4255 H         1 <0>         0.0739
     51 H13        -5.7784   -1.0548   -4.3053 H         1 <0>         0.0686
     52 H14        -8.4749   -0.2218   -4.4131 H         1 <0>         0.3984
     53 H15        -8.9154    2.9754   -7.6604 H         1 <0>         0.0921
     54 H16        -7.2643    2.9068   -6.9705 H         1 <0>         0.1079
     55 H17        -9.3545    1.0596   -9.5353 H         1 <0>         0.0861
     56 H18        -7.9284    0.0091   -9.8000 H         1 <0>         0.0882
     57 H19       -10.3251   -0.8694   -6.6820 H         1 <0>         0.0982
     58 H20       -10.7985    0.3413   -7.8988 H         1 <0>         0.1223
     59 H21       -11.3585   -1.9639   -8.6471 H         1 <0>         0.1402
     60 H22       -10.1459   -1.2121   -9.7109 H         1 <0>         0.1330
     61 H23        -9.5414   -3.0275   -7.4870 H         1 <0>         0.4274
     62 H24        -7.3415   -3.0894   -8.4543 H         1 <0>         0.1380
     63 H25        -7.8885   -1.8445   -9.6024 H         1 <0>         0.1340
     64 H26        -6.6890   -0.8103   -7.7013 H         1 <0>         0.1223
     65 H27        -7.8277   -1.5693   -6.5621 H         1 <0>         0.0968
     66 H28        -7.2534    4.3939   -7.9973 H         1 <0>         0.1341
     67 H29        -5.8327    6.1838   -7.0913 H         1 <0>         0.1409
     68 H30        -3.4116    6.1785   -7.5226 H         1 <0>         0.1384
     69 H31        -3.6694    2.5188  -11.0629 H         1 <0>         0.0823
     70 H32        -2.5885    2.1231   -9.7052 H         1 <0>         0.0700
     71 H33        -4.1759    1.3292   -9.8396 H         1 <0>         0.0752
     72 H34         0.3199    4.3240   -9.6390 H         1 <0>         0.0954
     73 H35        -0.1071    4.3664  -11.3665 H         1 <0>         0.1111
     74 H36         0.1886    5.8844  -10.4853 H         1 <0>         0.1115
     75 H37        -9.5874   -3.4634   -9.0736 H         1 <0>         0.4341
@<TRIPOS>BOND
     1    1   40 1
     2    1   41 1
     3    1   42 1
     4    1    2 1
     5    2   10 ar
     6    2    3 ar
     7    3   43 1
     8    3    4 ar
     9    4   44 1
    10    4    5 ar
    11    5   45 1
    12    5    6 ar
    13    6   10 ar
    14    6    7 1
    15    7   11 1
    16    7    8 2
    17    8    9 1
    18    8   46 1
    19    9   47 1
    20    9   10 1
    21   11   12 1
    22   11   48 1
    23   11   49 1
    24   12   13 1
    25   12   50 1
    26   12   51 1
    27   13   14 am
    28   13   52 1
    29   14   15 2
    30   14   16 1
    31   16   17 1
    32   16   21 1
    33   16   18 1
    34   18   19 1
    35   18   53 1
    36   18   54 1
    37   19   20 1
    38   19   27 am
    39   20   21 1
    40   20   55 1
    41   20   56 1
    42   21   26 1
    43   21   22 1
    44   22   23 1
    45   22   57 1
    46   22   58 1
    47   23   24 1
    48   23   59 1
    49   23   60 1
    50   24   25 1
    51   24   61 1
    52   24   75 1
    53   25   26 1
    54   25   62 1
    55   25   63 1
    56   26   64 1
    57   26   65 1
    58   27   28 2
    59   27   29 1
    60   29   34 ar
    61   29   30 ar
    62   30   31 ar
    63   30   66 1
    64   31   32 ar
    65   31   67 1
    66   32   33 ar
    67   32   68 1
    68   33   34 ar
    69   33   36 1
    70   34   35 1
    71   35   69 1
    72   35   70 1
    73   35   71 1
    74   36   37 1
    75   37   38 2
    76   37   39 1
    77   39   72 1
    78   39   73 1
    79   39   74 1
@<TRIPOS>MOLECULE
ZINC17306117
   73    75     0     0     0
SMALL
USER_CHARGES

@<TRIPOS>ATOM
      1 C1         -0.5866    1.1029    0.3849 C.3       1 <0>        -0.1788
      2 C2         -0.1823   -0.3727    0.3812 C.3       1 <0>         0.0808
      3 H1         -1.0418   -0.9856    0.6528 H         1 <0>         0.1479
      4 C3          0.9263   -0.5923    1.3781 C.ar      1 <0>        -0.1565
      5 C4          2.2279   -0.2643    1.0459 C.ar      1 <0>        -0.0941
      6 C5          3.2460   -0.4640    1.9576 C.ar      1 <0>        -0.0997
      7 C6          2.9615   -0.9946    3.2086 C.ar      1 <0>         0.1914
      8 C7          1.6537   -1.3229    3.5392 C.ar      1 <0>        -0.1284
      9 C8          0.6391   -1.1160    2.6252 C.ar      1 <0>        -0.0562
     10 N1          3.9929   -1.1989    4.1360 N.pl3     1 <0>        -0.3486
     11 C9          3.8735   -1.7068    5.3781 C.2       1 <0>         0.2689
     12 N2          5.0640   -1.7346    5.9205 N.2       1 <0>        -0.5237
     13 C10         5.9636   -1.2559    5.0619 C.2       1 <0>         0.2246
     14 N3          5.3573   -0.9205    3.9530 N.2       1 <0>        -0.3116
     15 N4          0.2835   -0.7494   -0.9601 N.4       1 <0>        -0.3716
     16 C11        -0.7972   -0.5354   -1.9318 C.3       1 <0>        -0.0633
     17 C12         0.6717   -2.1662   -0.9637 C.3       1 <0>        -0.0357
     18 C13         1.2639   -2.5214   -2.3031 C.2       1 <0>         0.5079
     19 O1          1.3600   -1.6754   -3.1675 O.2       1 <0>        -0.5043
     20 N5          1.6872   -3.7804   -2.5412 N.am      1 <0>        -0.4952
     21 C14         1.4753   -4.8265   -1.5377 C.3       1 <0>         0.0895
     22 C15         2.6080   -4.7842   -0.5100 C.3       1 <0>        -0.1074
     23 C16         2.3008   -5.7598    0.6279 C.3       1 <0>        -0.1506
     24 C17         3.9226   -5.1837   -1.1832 C.3       1 <0>        -0.1549
     25 C18         2.3338   -4.0893   -3.7566 C.2       1 <0>        -0.1667
     26 C19         1.7777   -4.9945   -4.6371 C.2       1 <0>         0.5050
     27 N6          2.4316   -5.2747   -5.8144 N.am      1 <0>        -0.5339
     28 C20         3.5997   -4.6734   -6.1041 C.2       1 <0>         0.7089
     29 O2          4.1622   -4.9346   -7.1500 O.2       1 <0>        -0.5159
     30 N7          4.1564   -3.7883   -5.2583 N.am      1 <0>        -0.6584
     31 H2          4.9992   -3.3681   -5.4905 H         1 <0>         0.4374
     32 C21         3.5543   -3.4750   -4.0944 C.2       1 <0>         0.5762
     33 O3          4.0656   -2.6679   -3.3367 O.2       1 <0>        -0.5162
     34 C22         1.8528   -6.2341   -6.7583 C.3       1 <0>         0.1056
     35 C23         0.9378   -5.4969   -7.7382 C.3       1 <0>        -0.1158
     36 C24         0.4318   -6.4765   -8.7990 C.3       1 <0>        -0.1477
     37 C25        -0.2527   -4.9073   -6.9792 C.3       1 <0>        -0.1547
     38 N8          0.5846   -5.6092   -4.3412 N.pl3     1 <0>        -0.8301
     39 H3          0.2728    1.7158    0.1133 H         1 <0>         0.0839
     40 H4         -1.3885    1.2617   -0.3361 H         1 <0>         0.0891
     41 H5         -0.9323    1.3824    1.3801 H         1 <0>         0.1101
     42 H6          2.4487    0.1480    0.0724 H         1 <0>         0.1299
     43 H7          4.2625   -0.2080    1.6974 H         1 <0>         0.1508
     44 H8          1.4294   -1.7359    4.5116 H         1 <0>         0.1464
     45 H9         -0.3790   -1.3674    2.8833 H         1 <0>         0.1479
     46 H10         2.9559   -2.0337    5.8445 H         1 <0>         0.2265
     47 H11         7.0232   -1.1645    5.2497 H         1 <0>         0.2299
     48 H12        -1.0852    0.5159   -1.9292 H         1 <0>         0.1301
     49 H13        -0.4515   -0.8149   -2.9271 H         1 <0>         0.1419
     50 H14        -1.6566   -1.1483   -1.6603 H         1 <0>         0.1211
     51 H15         1.4102   -2.3425   -0.1816 H         1 <0>         0.1598
     52 H16        -0.2071   -2.7842   -0.7795 H         1 <0>         0.1588
     53 H17         0.5224   -4.6603   -1.0352 H         1 <0>         0.0862
     54 H18         1.4636   -5.8011   -2.0257 H         1 <0>         0.0981
     55 H19         2.6972   -3.7747   -0.1089 H         1 <0>         0.0677
     56 H20         2.2115   -6.7694    0.2269 H         1 <0>         0.0630
     57 H21         3.1077   -5.7297    1.3601 H         1 <0>         0.0646
     58 H22         1.3642   -5.4752    1.1075 H         1 <0>         0.0567
     59 H23         4.7089   -5.2539   -0.4317 H         1 <0>         0.0590
     60 H24         3.8010   -6.1496   -1.6733 H         1 <0>         0.0541
     61 H25         4.1943   -4.4319   -1.9242 H         1 <0>         0.0688
     62 H26         2.6524   -6.7288   -7.3097 H         1 <0>         0.1180
     63 H27         1.2745   -6.9785   -6.2110 H         1 <0>         0.0938
     64 H28         1.4946   -4.6939   -8.2212 H         1 <0>         0.0858
     65 H29        -0.1249   -7.2795   -8.3160 H         1 <0>         0.0602
     66 H30        -0.2200   -5.9512   -9.4971 H         1 <0>         0.0678
     67 H31         1.2800   -6.8965   -9.3397 H         1 <0>         0.0654
     68 H32        -0.9045   -4.3821   -7.6773 H         1 <0>         0.0675
     69 H33        -0.8094   -5.7103   -6.4962 H         1 <0>         0.0565
     70 H34         0.1078   -4.2094   -6.2235 H         1 <0>         0.0523
     71 H35         0.0783   -5.3349   -3.5606 H         1 <0>         0.4207
     72 H36         0.2490   -6.3173   -4.9128 H         1 <0>         0.4146
     73 H37         1.0791   -0.1821   -1.2115 H         1 <0>         0.4288
@<TRIPOS>BOND
     1    1    2 1
     2    1   39 1
     3    1   40 1
     4    1   41 1
     5    2    3 1
     6    2    4 1
     7    2   15 1
     8    4    9 ar
     9    4    5 ar
    10    5    6 ar
    11    5   42 1
    12    6    7 ar
    13    6   43 1
    14    7    8 ar
    15    7   10 1
    16    8    9 ar
    17    8   44 1
    18    9   45 1
    19   10   14 1
    20   10   11 1
    21   11   12 2
    22   11   46 1
    23   12   13 1
    24   13   14 2
    25   13   47 1
    26   15   16 1
    27   15   17 1
    28   15   73 1
    29   16   48 1
    30   16   49 1
    31   16   50 1
    32   17   18 1
    33   17   51 1
    34   17   52 1
    35   18   19 2
    36   18   20 am
    37   20   21 1
    38   20   25 1
    39   21   22 1
    40   21   53 1
    41   21   54 1
    42   22   23 1
    43   22   24 1
    44   22   55 1
    45   23   56 1
    46   23   57 1
    47   23   58 1
    48   24   59 1
    49   24   60 1
    50   24   61 1
    51   25   32 1
    52   25   26 2
    53   26   27 1
    54   26   38 1
    55   27   28 am
    56   27   34 1
    57   28   29 2
    58   28   30 am
    59   30   31 1
    60   30   32 am
    61   32   33 2
    62   34   35 1
    63   34   62 1
    64   34   63 1
    65   35   36 1
    66   35   37 1
    67   35   64 1
    68   36   65 1
    69   36   66 1
    70   36   67 1
    71   37   68 1
    72   37   69 1
    73   37   70 1
    74   38   71 1
    75   38   72 1
@<TRIPOS>MOLECULE
ZINC64890712
   62    65     0     0     0
SMALL
USER_CHARGES

@<TRIPOS>ATOM
      1 C1         -0.5206    1.3143    0.8852 C.3       1 <0>        -0.1603
      2 C2         -0.4383   -0.2135    0.8845 C.3       1 <0>        -0.0998
      3 C3         -0.0826   -0.7057    2.2888 C.3       1 <0>        -0.1509
      4 C4         -1.7896   -0.7968    0.4667 C.3       1 <0>         0.1309
      5 H1         -2.5710   -0.4070    1.1190 H         1 <0>         0.1271
      6 C5         -2.0898   -0.4022   -0.9808 C.3       1 <0>         0.2411
      7 H2         -2.0258    0.6797   -1.0973 H         1 <0>         0.1692
      8 N1         -3.4228   -0.8771   -1.3708 N.pl3     1 <0>        -0.6239
      9 C6         -3.2962   -1.7017   -2.3651 C.cat     1 <0>         0.5695
     10 N2         -1.9795   -1.8582   -2.7218 N.pl3     1 <0>        -0.5088
     11 O1         -1.1731   -1.0532   -1.8736 O.3       1 <0>        -0.0920
     12 C7         -4.4270   -2.3864   -3.0295 C.ar      1 <0>        -0.1346
     13 C8         -5.6806   -1.7717   -3.0864 C.ar      1 <0>        -0.0352
     14 C9         -6.7334   -2.4068   -3.7043 C.ar      1 <0>        -0.1263
     15 C10        -6.5558   -3.6644   -4.2758 C.ar      1 <0>         0.2022
     16 C11        -5.3045   -4.2845   -4.2217 C.ar      1 <0>         0.1264
     17 C12        -4.2414   -3.6418   -3.6037 C.ar      1 <0>        -0.0585
     18 N3         -5.1121   -5.5422   -4.7884 N.am      1 <0>        -0.6392
     19 H3         -4.2399   -5.9646   -4.7455 H         1 <0>         0.4292
     20 C13        -6.1370   -6.1734   -5.3964 C.2       1 <0>         0.5088
     21 O2         -5.9751   -7.2706   -5.8916 O.2       1 <0>        -0.4355
     22 C14        -7.4718   -5.5100   -5.4537 C.2       1 <0>         0.5063
     23 O3         -8.4079   -6.0616   -5.9963 O.2       1 <0>        -0.4229
     24 N4         -7.6291   -4.2926   -4.8962 N.am      1 <0>        -0.5253
     25 C15        -8.9349   -3.6301   -4.9446 C.3       1 <0>         0.1213
     26 C16        -9.3499   -3.4268   -6.4031 C.3       1 <0>        -0.1773
     27 C17        -9.9746   -4.4999   -4.2351 C.3       1 <0>        -0.1765
     28 N5         -1.7459   -2.2571    0.5757 N.pl3     1 <0>        -1.1176
     29 S1         -2.6988   -3.0335    1.6853 S.o2      1 <0>         2.6792
     30 O4         -2.4537   -4.4244    1.5287 O.2       1 <0>        -0.9388
     31 O5         -2.5107   -2.3614    2.9232 O.2       1 <0>        -0.9299
     32 C18        -4.3747   -2.7612    1.2141 C.ar      1 <0>        -0.6899
     33 C19        -5.0577   -1.6598    1.6950 C.ar      1 <0>        -0.0336
     34 C20        -6.3724   -1.4462    1.3253 C.ar      1 <0>        -0.1354
     35 C21        -7.0040   -2.3338    0.4744 C.ar      1 <0>        -0.0570
     36 C22        -6.3208   -3.4348   -0.0073 C.ar      1 <0>        -0.1322
     37 C23        -5.0047   -3.6460    0.3590 C.ar      1 <0>        -0.0240
     38 H4          0.4421    1.7299    1.1829 H         1 <0>         0.0781
     39 H5         -0.7740    1.6650   -0.1152 H         1 <0>         0.0554
     40 H6         -1.2885    1.6365    1.5885 H         1 <0>         0.0679
     41 H7          0.3296   -0.5357    0.1812 H         1 <0>         0.0914
     42 H8         -0.8100   -0.3211    3.0037 H         1 <0>         0.0723
     43 H9         -0.0972   -1.7955    2.3064 H         1 <0>         0.0564
     44 H10         0.9127   -0.3513    2.5568 H         1 <0>         0.0700
     45 H11        -1.6529   -2.4259   -3.4373 H         1 <0>         0.4888
     46 H12        -5.8235   -0.7967   -2.6445 H         1 <0>         0.1496
     47 H13        -7.7008   -1.9285   -3.7459 H         1 <0>         0.1665
     48 H14        -3.2720   -4.1163   -3.5641 H         1 <0>         0.1556
     49 H15        -8.8701   -2.6625   -4.4470 H         1 <0>         0.1101
     50 H16        -9.4147   -4.3944   -6.9007 H         1 <0>         0.0819
     51 H17       -10.3214   -2.9339   -6.4391 H         1 <0>         0.0859
     52 H18        -8.6092   -2.8072   -6.9086 H         1 <0>         0.0631
     53 H19       -10.9461   -4.0070   -4.2710 H         1 <0>         0.0857
     54 H20       -10.0394   -5.4675   -4.7327 H         1 <0>         0.0819
     55 H21        -9.6790   -4.6447   -3.1960 H         1 <0>         0.0623
     56 H22        -1.1587   -2.7692   -0.0022 H         1 <0>         0.4250
     57 H23        -4.5642   -0.9663    2.3598 H         1 <0>         0.1445
     58 H24        -6.9063   -0.5861    1.7016 H         1 <0>         0.1413
     59 H25        -8.0315   -2.1673    0.1861 H         1 <0>         0.1380
     60 H26        -6.8143   -4.1284   -0.6718 H         1 <0>         0.1341
     61 H27        -4.4697   -4.5041   -0.0202 H         1 <0>         0.1393
     62 H28        -4.2596   -0.6181   -0.9541 H         1 <0>         0.4691
@<TRIPOS>BOND
     1    1    2 1
     2    1   38 1
     3    1   39 1
     4    1   40 1
     5    2    3 1
     6    2    4 1
     7    2   41 1
     8    3   42 1
     9    3   43 1
    10    3   44 1
    11    4    5 1
    12    4    6 1
    13    4   28 1
    14    6    7 1
    15    6   11 1
    16    6    8 1
    17    8    9 2
    18    8   62 1
    19    9   10 1
    20    9   12 1
    21   10   11 1
    22   10   45 1
    23   12   17 ar
    24   12   13 ar
    25   13   14 ar
    26   13   46 1
    27   14   15 ar
    28   14   47 1
    29   15   24 1
    30   15   16 ar
    31   16   17 ar
    32   16   18 1
    33   17   48 1
    34   18   19 1
    35   18   20 am
    36   20   21 2
    37   20   22 1
    38   22   23 2
    39   22   24 am
    40   24   25 1
    41   25   26 1
    42   25   27 1
    43   25   49 1
    44   26   50 1
    45   26   51 1
    46   26   52 1
    47   27   53 1
    48   27   54 1
    49   27   55 1
    50   28   29 1
    51   28   56 1
    52   29   30 2
    53   29   31 2
    54   29   32 1
    55   32   37 ar
    56   32   33 ar
    57   33   34 ar
    58   33   57 1
    59   34   35 ar
    60   34   58 1
    61   35   36 ar
    62   35   59 1
    63   36   37 ar
    64   36   60 1
    65   37   61 1
@<TRIPOS>MOLECULE
ZINC22065553
   50    53     0     0     0
SMALL
USER_CHARGES
(2R,3S,4S,5R,6S)-6-(11-carbamoylbenzo[b][1]benzazepin-5-yl)oxy-3,4,5-trihydroxy-tetrahydropyran-2-carboxylic acid
@<TRIPOS>ATOM
      1 C1          5.0603    2.0014   -5.0310 C.ar      1 <0>        -0.1233
      2 C2          5.2121    2.8953   -6.1919 C.ar      1 <0>        -0.1060
      3 C3          4.7751    4.1337   -6.1263 C.ar      1 <0>        -0.1298
      4 C4          4.1345    4.6302   -4.8937 C.ar      1 <0>         0.1015
      5 C5          4.0256    3.8426   -3.8474 C.ar      1 <0>        -0.0101
      6 C6          4.5019    2.4477   -3.9278 C.ar      1 <0>        -0.0845
      7 C7          3.4399    4.3314   -2.5953 C.2       1 <0>        -0.2383
      8 C8          2.4241    5.1289   -2.4994 C.2       1 <0>         0.1669
      9 C9          1.6674    5.6786   -3.6301 C.ar      1 <0>        -0.0497
     10 C10         0.2053    5.8209   -3.5265 C.ar      1 <0>        -0.0720
     11 C11        -0.4793    6.3625   -4.5098 C.ar      1 <0>        -0.1266
     12 C12         0.2192    6.8323   -5.7187 C.ar      1 <0>        -0.1057
     13 C13         1.5221    6.6891   -5.8206 C.ar      1 <0>        -0.1066
     14 C14         2.2875    6.0592   -4.7267 C.ar      1 <0>         0.1851
     15 N1          3.6173    5.8780   -4.8750 N.am      1 <0>        -0.5127
     16 C15         4.4307    6.9448   -5.0043 C.2       1 <0>         0.7129
     17 O1          3.9680    8.0657   -4.9877 O.2       1 <0>        -0.5776
     18 N2          5.7583    6.7659   -5.1520 N.am      1 <0>        -0.8826
     19 O2          2.0221    5.4819   -1.2469 O.3       1 <0>        -0.3091
     20 C16         2.7606    4.9380   -0.1511 C.3       1 <0>         0.2508
     21 H1          3.8255    5.1436   -0.3346 H         1 <0>         0.1028
     22 C17         2.2460    5.5388    1.1596 C.3       1 <0>         0.1279
     23 H2          2.3786    6.6306    1.1809 H         1 <0>         0.0654
     24 C18         0.7771    5.1480    1.3494 C.3       1 <0>         0.0979
     25 H3          0.3633    5.5699    2.2772 H         1 <0>         0.0573
     26 C19         0.6591    3.6210    1.3240 C.3       1 <0>         0.0838
     27 H4         -0.3817    3.2948    1.4670 H         1 <0>         0.0614
     28 C20         1.2350    3.0943    0.0069 C.3       1 <0>         0.0298
     29 H5          0.7014    3.5029   -0.8639 H         1 <0>         0.0679
     30 O3          2.5934    3.5191   -0.1212 O.3       1 <0>        -0.3429
     31 C21         1.1765    1.5884   -0.0006 C.2       1 <0>         0.4736
     32 O4          2.1986    0.9442   -0.0139 O.co2     1 <0>        -0.6097
     33 O5         -0.0110    0.9628    0.0073 O.co2     1 <0>        -0.7602
     34 O6          1.3899    3.0672    2.4200 O.3       1 <0>        -0.5791
     35 O7         -0.0063    5.7057    0.2923 O.3       1 <0>        -0.5686
     36 O8          3.0188    5.0358    2.2513 O.3       1 <0>        -0.5524
     37 H6          5.4072    0.9801   -5.0862 H         1 <0>         0.1292
     38 H7          5.6817    2.5343   -7.0950 H         1 <0>         0.1275
     39 H8          4.8858    4.7894   -6.9773 H         1 <0>         0.1237
     40 H9          4.3908    1.7914   -3.0774 H         1 <0>         0.1370
     41 H10         3.9380    3.9635   -1.6862 H         1 <0>         0.1481
     42 H11        -0.3065    5.4763   -2.6401 H         1 <0>         0.1368
     43 H12        -1.5518    6.4624   -4.4315 H         1 <0>         0.1300
     44 H13        -0.3383    7.2941   -6.5202 H         1 <0>         0.1279
     45 H14         2.0340    7.0336   -6.7070 H         1 <0>         0.1235
     46 H15         6.4222    7.6366   -5.2575 H         1 <0>         0.4359
     47 H16         6.1780    5.7492   -5.1670 H         1 <0>         0.4192
     48 H17         1.4205    1.9774    2.5660 H         1 <0>         0.4110
     49 H18        -1.0918    5.5305    0.2608 H         1 <0>         0.4035
     50 H19         2.7939    5.3577    3.2788 H         1 <0>         0.4090
@<TRIPOS>BOND
     1    1    6 ar
     2    1    2 ar
     3    1   37 1
     4    2    3 ar
     5    2   38 1
     6    3    4 ar
     7    3   39 1
     8    4   15 1
     9    4    5 ar
    10    5    6 ar
    11    5    7 1
    12    6   40 1
    13    7    8 2
    14    7   41 1
    15    8    9 1
    16    8   19 1
    17    9   14 ar
    18    9   10 ar
    19   10   11 ar
    20   10   42 1
    21   11   12 ar
    22   11   43 1
    23   12   13 ar
    24   12   44 1
    25   13   14 ar
    26   13   45 1
    27   14   15 1
    28   15   16 am
    29   16   17 2
    30   16   18 am
    31   18   46 1
    32   18   47 1
    33   19   20 1
    34   20   21 1
    35   20   30 1
    36   20   22 1
    37   22   23 1
    38   22   24 1
    39   22   36 1
    40   24   25 1
    41   24   26 1
    42   24   35 1
    43   26   27 1
    44   26   28 1
    45   26   34 1
    46   28   29 1
    47   28   30 1
    48   28   31 1
    49   31   32 2
    50   31   33 1
    51   34   48 1
    52   35   49 1
    53   36   50 1
@<TRIPOS>MOLECULE
ZINC35644043
   52    55     0     0     0
SMALL
USER_CHARGES

@<TRIPOS>ATOM
      1 C1          0.5903    1.6755   -0.8768 C.ar      1 <0>        -0.1133
      2 C2          1.8090    2.2629   -1.1646 C.ar      1 <0>        -0.1101
      3 C3          2.9583    1.4936   -1.1904 C.ar      1 <0>        -0.1266
      4 C4          2.8675    0.1334   -0.9298 C.ar      1 <0>         0.1197
      5 C5          1.6597   -0.4537   -0.6612 C.ar      1 <0>        -0.0698
      6 C6          0.5094    0.3180   -0.6231 C.ar      1 <0>        -0.0909
      7 C7          1.5812   -1.9340   -0.4353 C.3       1 <0>        -0.1059
      8 C8          1.8448   -2.7210   -1.6950 C.3       1 <0>         0.1500
      9 H1          1.1554   -2.3783   -2.4666 H         1 <0>         0.0653
     10 C9          3.2512   -2.6041   -2.2255 C.ar      1 <0>        -0.0913
     11 C10         3.5735   -3.5354   -3.2176 C.ar      1 <0>        -0.0808
     12 C11         4.8258   -3.5762   -3.7846 C.ar      1 <0>        -0.1305
     13 C12         5.7995   -2.6851   -3.3705 C.ar      1 <0>        -0.1075
     14 C13         5.4943   -1.7567   -2.4016 C.ar      1 <0>        -0.1131
     15 C14         4.2157   -1.7031   -1.8354 C.ar      1 <0>         0.1811
     16 N1          3.9994   -0.6803   -0.9156 N.am      1 <0>        -0.5234
     17 C15         4.9304   -0.4661    0.0351 C.2       1 <0>         0.7097
     18 O1          5.9291   -1.1585    0.0749 O.2       1 <0>        -0.5712
     19 N2          4.7544    0.5155    0.9417 N.am      1 <0>        -0.8585
     20 O2          1.5771   -4.0997   -1.4315 O.3       1 <0>        -0.3425
     21 C16         0.2733   -4.5256   -1.8326 C.3       1 <0>         0.2037
     22 H2          0.0639   -4.1580   -2.8371 H         1 <0>         0.0895
     23 C17         0.2112   -6.0553   -1.8254 C.3       1 <0>         0.1060
     24 H3         -0.7700   -6.3816   -2.1700 H         1 <0>         0.0949
     25 C18         0.4472   -6.5614   -0.3990 C.3       1 <0>         0.1257
     26 H4          0.3488   -7.6467   -0.3763 H         1 <0>         0.0637
     27 C19        -0.5936   -5.9329    0.5327 C.3       1 <0>         0.0627
     28 H5         -0.3990   -6.2444    1.5590 H         1 <0>         0.0701
     29 C20        -0.5004   -4.4080    0.4344 C.3       1 <0>        -0.0011
     30 H6          0.4839   -4.0816    0.7700 H         1 <0>         0.0740
     31 O3         -0.6986   -4.0062   -0.9228 O.3       1 <0>        -0.3474
     32 C21        -1.5607   -3.7826    1.3038 C.2       1 <0>         0.5009
     33 O4         -1.5192   -3.9254    2.5139 O.co2     1 <0>        -0.6891
     34 O5         -2.4600   -3.1339    0.7970 O.co2     1 <0>        -0.6670
     35 O6         -1.9012   -6.3587    0.1442 O.3       1 <0>        -0.5617
     36 O7          1.7595   -6.1912    0.0285 O.3       1 <0>        -0.5229
     37 O8          1.2199   -6.5782   -2.6920 O.3       1 <0>        -0.5434
     38 H7         -0.3032    2.2813   -0.8456 H         1 <0>         0.1287
     39 H8          1.8631    3.3219   -1.3695 H         1 <0>         0.1290
     40 H9          3.9142    1.9458   -1.4101 H         1 <0>         0.1284
     41 H10        -0.4436   -0.1371   -0.3973 H         1 <0>         0.1402
     42 H11         2.3170   -2.2159    0.3178 H         1 <0>         0.0763
     43 H12         0.5865   -2.1826   -0.0651 H         1 <0>         0.1024
     44 H13         2.8220   -4.2381   -3.5462 H         1 <0>         0.1251
     45 H14         5.0488   -4.3031   -4.5516 H         1 <0>         0.1227
     46 H15         6.7887   -2.7179   -3.8028 H         1 <0>         0.1243
     47 H16         6.2516   -1.0599   -2.0741 H         1 <0>         0.1285
     48 H17         3.9577    1.0678    0.9100 H         1 <0>         0.4012
     49 H18         5.4245    0.6696    1.6259 H         1 <0>         0.4158
     50 H19        -2.6114   -5.9980    0.6926 H         1 <0>         0.3891
     51 H20         1.9772   -6.4803    0.9253 H         1 <0>         0.3691
     52 H21         1.1339   -6.2940   -3.6123 H         1 <0>         0.3702
@<TRIPOS>BOND
     1    1    6 ar
     2    1    2 ar
     3    1   38 1
     4    2    3 ar
     5    2   39 1
     6    3    4 ar
     7    3   40 1
     8    4   16 1
     9    4    5 ar
    10    5    6 ar
    11    5    7 1
    12    6   41 1
    13    7    8 1
    14    7   42 1
    15    7   43 1
    16    8    9 1
    17    8   10 1
    18    8   20 1
    19   10   15 ar
    20   10   11 ar
    21   11   12 ar
    22   11   44 1
    23   12   13 ar
    24   12   45 1
    25   13   14 ar
    26   13   46 1
    27   14   15 ar
    28   14   47 1
    29   15   16 1
    30   16   17 am
    31   17   18 2
    32   17   19 am
    33   19   48 1
    34   19   49 1
    35   20   21 1
    36   21   22 1
    37   21   31 1
    38   21   23 1
    39   23   24 1
    40   23   25 1
    41   23   37 1
    42   25   26 1
    43   25   27 1
    44   25   36 1
    45   27   28 1
    46   27   29 1
    47   27   35 1
    48   29   30 1
    49   29   31 1
    50   29   32 1
    51   32   33 2
    52   32   34 1
    53   35   50 1
    54   36   51 1
    55   37   52 1
@<TRIPOS>MOLECULE
ZINC43505199
   36    38     0     0     0
SMALL
USER_CHARGES

@<TRIPOS>ATOM
      1 C1         -0.0168    1.3870    0.0097 C.ar      1 <0>        -0.1277
      2 C2          1.1671    2.0910    0.0021 C.ar      1 <0>        -0.0601
      3 C3          2.3865    1.4264   -0.0131 C.ar      1 <0>        -0.1302
      4 C4          2.4287    0.0488   -0.0209 C.ar      1 <0>         0.0580
      5 C5          1.2362   -0.6789   -0.0134 C.ar      1 <0>        -0.1018
      6 C6          0.0021   -0.0041    0.0020 C.ar      1 <0>         0.1375
      7 N1         -0.9869   -0.9624    0.0063 N.pl3     1 <0>        -0.5772
      8 H1         -1.9397   -0.7804    0.0161 H         1 <0>         0.4226
      9 C7         -0.4219   -2.2159   -0.0058 C.2       1 <0>        -0.0239
     10 C8          0.9185   -2.1109   -0.0180 C.2       1 <0>         0.0640
     11 O1          1.8119   -3.1391   -0.0317 O.3       1 <0>        -0.2733
     12 C9          1.2762   -4.4639   -0.0338 C.3       1 <0>         0.2054
     13 H2          0.5858   -4.5755   -0.8698 H         1 <0>         0.0977
     14 C10         2.4166   -5.4755   -0.1749 C.3       1 <0>         0.1038
     15 H3          2.9749   -5.2700   -1.0882 H         1 <0>         0.0823
     16 C11         3.3496   -5.3533    1.0339 C.3       1 <0>         0.1254
     17 H4          4.1327   -6.1086    0.9679 H         1 <0>         0.0647
     18 C12         2.5379   -5.5672    2.3152 C.3       1 <0>         0.0705
     19 H5          2.1294   -6.5777    2.3231 H         1 <0>         0.0639
     20 C13         1.3928   -4.5521    2.3600 C.3       1 <0>         0.0049
     21 H6          1.8029   -3.5427    2.3930 H         1 <0>         0.0724
     22 O2          0.5814   -4.6990    1.1927 O.3       1 <0>        -0.3446
     23 C14         0.5544   -4.7942    3.5887 C.2       1 <0>         0.5044
     24 O3          1.0350   -4.6289    4.6969 O.co2     1 <0>        -0.6867
     25 O4         -0.6045   -5.1554    3.4744 O.co2     1 <0>        -0.6702
     26 O5          3.3839   -5.3852    3.4524 O.3       1 <0>        -0.5715
     27 O6          3.9405   -4.0523    1.0519 O.3       1 <0>        -0.5341
     28 O7          1.8777   -6.7978   -0.2319 O.3       1 <0>        -0.5368
     29 Cl1         3.9553   -0.7775   -0.0405 Cl        1 <0>        -0.0228
     30 Br1         3.9973    2.4168   -0.0238 Br        1 <0>        -0.0412
     31 H7         -0.9591    1.9145    0.0260 H         1 <0>         0.1352
     32 H8          1.1469    3.1708    0.0078 H         1 <0>         0.1415
     33 H9         -0.9721   -3.1452   -0.0058 H         1 <0>         0.1805
     34 H10         2.9346   -5.5059    4.3001 H         1 <0>         0.3984
     35 H11         4.5445   -3.9049    1.7926 H         1 <0>         0.3848
     36 H12         1.2734   -6.9446   -0.9724 H         1 <0>         0.3842
@<TRIPOS>BOND
     1    1    6 ar
     2    1    2 ar
     3    1   31 1
     4    2    3 ar
     5    2   32 1
     6    3    4 ar
     7    3   30 1
     8    4    5 ar
     9    4   29 1
    10    5   10 1
    11    5    6 ar
    12    6    7 1
    13    7    8 1
    14    7    9 1
    15    9   10 2
    16    9   33 1
    17   10   11 1
    18   11   12 1
    19   12   13 1
    20   12   22 1
    21   12   14 1
    22   14   15 1
    23   14   16 1
    24   14   28 1
    25   16   17 1
    26   16   18 1
    27   16   27 1
    28   18   19 1
    29   18   20 1
    30   18   26 1
    31   20   21 1
    32   20   22 1
    33   20   23 1
    34   23   24 2
    35   23   25 1
    36   26   34 1
    37   27   35 1
    38   28   36 1
@<TRIPOS>MOLECULE
ZINC54621949
   71    74     0     0     0
SMALL
USER_CHARGES

@<TRIPOS>ATOM
      1 C1          5.5900   -3.5015    2.4481 C.3       1 <0>        -0.1068
      2 C2          4.5326   -4.5683    2.3259 C.ar      1 <0>        -0.0587
      3 C3          4.8001   -5.7287    1.6225 C.ar      1 <0>        -0.1924
      4 C4          3.8326   -6.7097    1.5076 C.ar      1 <0>        -0.0820
      5 C5          2.5953   -6.5339    2.0959 C.ar      1 <0>        -0.1751
      6 C6          2.3236   -5.3701    2.8033 C.ar      1 <0>         0.2458
      7 C7          3.2997   -4.3886    2.9212 C.ar      1 <0>        -0.1740
      8 N1          1.0721   -5.1888    3.4000 N.pl3     1 <0>        -0.6707
      9 C8          0.8136   -4.0521    4.1147 C.2       1 <0>         0.5230
     10 O1          0.9133   -2.8450    3.5213 O.3       1 <0>        -0.6572
     11 C9          0.4510   -4.1398    5.4419 C.2       1 <0>        -0.4708
     12 C10         0.1113   -2.8755    6.1781 C.3       1 <0>         0.0827
     13 H1         -0.8911   -2.5520    5.8978 H         1 <0>         0.0684
     14 C11         0.1628   -3.1172    7.6877 C.3       1 <0>        -0.0786
     15 H2         -0.2448   -2.2520    8.2105 H         1 <0>         0.0810
     16 C12        -0.6747   -4.3579    8.0165 C.3       1 <0>         0.1547
     17 C13         0.0456   -5.5944    7.4761 C.3       1 <0>        -0.1822
     18 C14         0.4109   -5.3870    6.0340 C.2       1 <0>         0.4152
     19 O2          0.6884   -6.3602    5.3588 O.2       1 <0>        -0.5731
     20 C15        -0.8369   -4.4804    9.5329 C.3       1 <0>        -0.1826
     21 O3         -1.9599   -4.2452    7.4019 O.3       1 <0>        -0.5426
     22 C16         1.5906   -3.3397    8.1154 C.2       1 <0>         0.5259
     23 O4          2.2686   -4.1745    7.5547 O.2       1 <0>        -0.4796
     24 N2          2.1142   -2.6109    9.1211 N.am      1 <0>        -0.6714
     25 C17         3.4712   -2.7321    9.4401 C.ar      1 <0>         0.1669
     26 C18         4.3576   -3.2718    8.5170 C.ar      1 <0>        -0.1353
     27 C19         5.6962   -3.3902    8.8350 C.ar      1 <0>        -0.0676
     28 C20         6.1544   -2.9724   10.0712 C.ar      1 <0>        -0.1465
     29 C21         5.2745   -2.4351   10.9925 C.ar      1 <0>        -0.0977
     30 C22         3.9354   -2.3079   10.6781 C.ar      1 <0>        -0.1368
     31 C23         2.9783   -1.7156   11.6801 C.3       1 <0>        -0.1068
     32 C24         6.6587   -3.9756    7.8340 C.3       1 <0>        -0.1142
     33 C25         1.1036   -1.8019    5.8121 C.ar      1 <0>        -0.0233
     34 C26         2.4500   -2.1055    5.7304 C.ar      1 <0>        -0.0753
     35 C27         3.3617   -1.1231    5.3955 C.ar      1 <0>        -0.1453
     36 C28         2.9252    0.1689    5.1407 C.ar      1 <0>         0.0762
     37 C29         1.5736    0.4708    5.2229 C.ar      1 <0>        -0.1488
     38 C30         0.6654   -0.5164    5.5531 C.ar      1 <0>        -0.1056
     39 O5          3.8201    1.1372    4.8115 O.3       1 <0>        -0.5073
     40 C31         1.5412   -7.6035    1.9697 C.3       1 <0>        -0.0935
     41 H3          6.1944   -3.6889    3.3356 H         1 <0>         0.0625
     42 H4          6.2274   -3.5188    1.5641 H         1 <0>         0.0578
     43 H5          5.1129   -2.5251    2.5330 H         1 <0>         0.0610
     44 H6          5.7667   -5.8686    1.1616 H         1 <0>         0.1056
     45 H7          4.0444   -7.6144    0.9571 H         1 <0>         0.1091
     46 H8          3.0931   -3.4843    3.4744 H         1 <0>         0.1345
     47 H9          0.3873   -5.8695    3.3069 H         1 <0>         0.4031
     48 H10         0.9490   -5.7706    8.0600 H         1 <0>         0.0909
     49 H11        -0.6110   -6.4605    7.5591 H         1 <0>         0.0678
     50 H12        -1.4085   -3.6311    9.9070 H         1 <0>         0.0647
     51 H13        -1.3638   -5.4051    9.7685 H         1 <0>         0.0616
     52 H14         0.1462   -4.4923   10.0037 H         1 <0>         0.0614
     53 H15        -2.5432   -4.9981    7.5691 H         1 <0>         0.3722
     54 H16         1.5503   -2.0024    9.6237 H         1 <0>         0.4049
     55 H17         4.0003   -3.5989    7.5517 H         1 <0>         0.1598
     56 H18         7.2017   -3.0663   10.3176 H         1 <0>         0.1164
     57 H19         5.6353   -2.1101   11.9571 H         1 <0>         0.1194
     58 H20         2.5726   -2.5088   12.3080 H         1 <0>         0.0672
     59 H21         3.5055   -0.9929   12.3029 H         1 <0>         0.0670
     60 H22         2.1644   -1.2165   11.1541 H         1 <0>         0.0578
     61 H23         7.0643   -3.1786    7.2109 H         1 <0>         0.0691
     62 H24         7.4720   -4.4746    8.3609 H         1 <0>         0.0626
     63 H25         6.1358   -4.6972    7.2062 H         1 <0>         0.0695
     64 H26         2.7894   -3.1114    5.9289 H         1 <0>         0.1352
     65 H27         4.4134   -1.3606    5.3325 H         1 <0>         0.1094
     66 H28         1.2314    1.4758    5.0250 H         1 <0>         0.1114
     67 H29        -0.3873   -0.2829    5.6129 H         1 <0>         0.1115
     68 H30         3.9825    1.2162    3.8615 H         1 <0>         0.3787
     69 H31         1.6332   -8.3040    2.7998 H         1 <0>         0.0628
     70 H32         0.5530   -7.1439    1.9900 H         1 <0>         0.0533
     71 H33         1.6749   -8.1362    1.0282 H         1 <0>         0.0540
@<TRIPOS>BOND
     1    1    2 1
     2    1   41 1
     3    1   42 1
     4    1   43 1
     5    2    7 ar
     6    2    3 ar
     7    3    4 ar
     8    3   44 1
     9    4    5 ar
    10    4   45 1
    11    5    6 ar
    12    5   40 1
    13    6    7 ar
    14    6    8 1
    15    7   46 1
    16    8    9 1
    17    8   47 1
    18    9   10 1
    19    9   11 2
    20   11   18 1
    21   11   12 1
    22   12   13 1
    23   12   14 1
    24   12   33 1
    25   14   15 1
    26   14   16 1
    27   14   22 1
    28   16   17 1
    29   16   20 1
    30   16   21 1
    31   17   18 1
    32   17   48 1
    33   17   49 1
    34   18   19 2
    35   20   50 1
    36   20   51 1
    37   20   52 1
    38   21   53 1
    39   22   23 2
    40   22   24 am
    41   24   25 1
    42   24   54 1
    43   25   30 ar
    44   25   26 ar
    45   26   27 ar
    46   26   55 1
    47   27   28 ar
    48   27   32 1
    49   28   29 ar
    50   28   56 1
    51   29   30 ar
    52   29   57 1
    53   30   31 1
    54   31   58 1
    55   31   59 1
    56   31   60 1
    57   32   61 1
    58   32   62 1
    59   32   63 1
    60   33   38 ar
    61   33   34 ar
    62   34   35 ar
    63   34   64 1
    64   35   36 ar
    65   35   65 1
    66   36   37 ar
    67   36   39 1
    68   37   38 ar
    69   37   66 1
    70   38   67 1
    71   39   68 1
    72   40   69 1
    73   40   70 1
    74   40   71 1
@<TRIPOS>MOLECULE
ZINC65740782
   65    69     0     0     0
SMALL
USER_CHARGES

@<TRIPOS>ATOM
      1 C1         -0.1267    1.6373   -0.2751 C.3       1 <0>        -0.1455
      2 C2         -0.1758    0.1106   -0.1860 C.3       1 <0>        -0.0422
      3 C3         -1.6167   -0.3543   -0.2190 C.3       1 <0>        -0.0958
      4 C4         -2.3641    0.3645    0.9205 C.3       1 <0>        -0.1108
      5 C5         -1.6998    0.0823    2.2603 C.3       1 <0>        -0.0459
      6 H1         -1.7662   -0.9890    2.4501 H         1 <0>         0.0813
      7 C6         -2.3904    0.7958    3.3864 C.ar      1 <0>        -0.0703
      8 C7         -3.7658    0.9693    3.3101 C.ar      1 <0>        -0.1037
      9 C8         -4.4501    1.6090    4.3215 C.ar      1 <0>        -0.1488
     10 C9         -3.7574    2.0823    5.4265 C.ar      1 <0>         0.0964
     11 C10        -2.3860    1.9129    5.5005 C.ar      1 <0>        -0.1481
     12 C11        -1.6964    1.2744    4.4783 C.ar      1 <0>        -0.0562
     13 C12        -0.2018    1.1522    4.6149 C.3       1 <0>        -0.0816
     14 C13         0.3672    0.1408    3.6209 C.3       1 <0>        -0.1152
     15 C14        -0.2151    0.4691    2.2458 C.3       1 <0>        -0.0731
     16 H2         -0.1138    1.5339    2.0360 H         1 <0>         0.0832
     17 C15         0.4483   -0.3528    1.1599 C.3       1 <0>        -0.0786
     18 H3          0.2583   -1.4132    1.3261 H         1 <0>         0.0876
     19 C16         1.9377   -0.0869    0.9150 C.3       1 <0>        -0.1092
     20 C17         2.1425   -0.5715   -0.5464 C.3       1 <0>        -0.1438
     21 C18         0.7550   -0.4928   -1.2312 C.3       1 <0>         0.2321
     22 C19         0.8204    0.3754   -2.4182 C.1       1 <0>        -0.1860
     23 C20         0.8725    1.0678   -3.3648 C.1       1 <0>        -0.2029
     24 O1          0.3082   -1.8001   -1.5966 O.3       1 <0>        -0.3230
     25 C21         1.0474   -2.3884   -2.6687 C.3       1 <0>         0.2568
     26 H4          1.1986   -1.6487   -3.4549 H         1 <0>         0.0552
     27 C22         0.2688   -3.5802   -3.2320 C.3       1 <0>         0.1087
     28 H5         -0.6802   -3.2345   -3.6418 H         1 <0>         0.0592
     29 C23         1.0942   -4.2418   -4.3398 C.3       1 <0>         0.0778
     30 H6          1.2393   -3.5358   -5.1575 H         1 <0>         0.0683
     31 C24         2.4555   -4.6533   -3.7706 C.3       1 <0>         0.0700
     32 H7          3.0704   -5.0750   -4.5658 H         1 <0>         0.0617
     33 C25         3.1496   -3.4200   -3.1866 C.3       1 <0>        -0.0011
     34 H8          3.3285   -2.6939   -3.9796 H         1 <0>         0.0511
     35 O2          2.3155   -2.8352   -2.1845 O.3       1 <0>        -0.3397
     36 C26         4.4640   -3.8270   -2.5720 C.2       1 <0>         0.5060
     37 O3          5.3569   -4.2655   -3.2770 O.co2     1 <0>        -0.6917
     38 O4          4.6346   -3.7178   -1.3697 O.co2     1 <0>        -0.6580
     39 O5          2.2684   -5.6288   -2.7433 O.3       1 <0>        -0.5325
     40 O6          0.4068   -5.3978   -4.8226 O.3       1 <0>        -0.5554
     41 O7          0.0225   -4.5256   -2.1890 O.3       1 <0>        -0.5131
     42 O8         -4.4228    2.7091    6.4321 O.3       1 <0>        -0.5017
     43 H9          0.9070    1.9730   -0.1931 H         1 <0>         0.0585
     44 H10        -0.5383    1.9587   -1.2319 H         1 <0>         0.0553
     45 H11        -0.7140    2.0676    0.5360 H         1 <0>         0.0695
     46 H12        -2.0668   -0.0957   -1.1774 H         1 <0>         0.0621
     47 H13        -1.6608   -1.4328   -0.0677 H         1 <0>         0.0778
     48 H14        -2.3553    1.4385    0.7344 H         1 <0>         0.0659
     49 H15        -3.3958    0.0142    0.9503 H         1 <0>         0.0635
     50 H16        -4.3046    0.5999    2.4501 H         1 <0>         0.1280
     51 H17        -5.5198    1.7414    4.2538 H         1 <0>         0.1250
     52 H18        -1.8470    2.2810    6.3610 H         1 <0>         0.1242
     53 H19         0.2538    2.1257    4.4334 H         1 <0>         0.0762
     54 H20         0.0387    0.8306    5.6282 H         1 <0>         0.0733
     55 H21         1.4536    0.2247    3.5922 H         1 <0>         0.0748
     56 H22         0.0836   -0.8682    3.9201 H         1 <0>         0.0682
     57 H23         2.1590    0.9768    1.0031 H         1 <0>         0.0635
     58 H24         2.5514   -0.6678    1.6034 H         1 <0>         0.0726
     59 H25         2.8508    0.0784   -1.0603 H         1 <0>         0.0636
     60 H26         2.5049   -1.5994   -0.5524 H         1 <0>         0.1201
     61 H27         0.9192    1.6871   -4.2114 H         1 <0>         0.2168
     62 H28         3.0909   -5.9353   -2.3375 H         1 <0>         0.3784
     63 H29         0.8736   -5.8672   -5.5275 H         1 <0>         0.3813
     64 H30        -0.4680   -5.3082   -2.4754 H         1 <0>         0.3722
     65 H31        -4.7329    2.1147    7.1290 H         1 <0>         0.3875
@<TRIPOS>BOND
     1    1    2 1
     2    1   43 1
     3    1   44 1
     4    1   45 1
     5    2   17 1
     6    2   21 1
     7    2    3 1
     8    3    4 1
     9    3   46 1
    10    3   47 1
    11    4    5 1
    12    4   48 1
    13    4   49 1
    14    5    6 1
    15    5   15 1
    16    5    7 1
    17    7   12 ar
    18    7    8 ar
    19    8    9 ar
    20    8   50 1
    21    9   10 ar
    22    9   51 1
    23   10   11 ar
    24   10   42 1
    25   11   12 ar
    26   11   52 1
    27   12   13 1
    28   13   14 1
    29   13   53 1
    30   13   54 1
    31   14   15 1
    32   14   55 1
    33   14   56 1
    34   15   16 1
    35   15   17 1
    36   17   18 1
    37   17   19 1
    38   19   20 1
    39   19   57 1
    40   19   58 1
    41   20   21 1
    42   20   59 1
    43   20   60 1
    44   21   22 1
    45   21   24 1
    46   22   23 3
    47   23   61 1
    48   24   25 1
    49   25   26 1
    50   25   35 1
    51   25   27 1
    52   27   28 1
    53   27   29 1
    54   27   41 1
    55   29   30 1
    56   29   31 1
    57   29   40 1
    58   31   32 1
    59   31   33 1
    60   31   39 1
    61   33   34 1
    62   33   35 1
    63   33   36 1
    64   36   37 2
    65   36   38 1
    66   39   62 1
    67   40   63 1
    68   41   64 1
    69   42   65 1
@<TRIPOS>MOLECULE
ZINC31964976
   43    44     0     0     0
SMALL
USER_CHARGES
(E)-N-[2-[(2-aminoacetyl)amino]-4-methyl-phenyl]-3-(4-fluorophenyl)prop-2-enamide
@<TRIPOS>ATOM
      1 C1          6.1998    6.1729    0.3165 C.3       1 <0>        -0.1185
      2 C2          4.8795    5.4510    0.2338 C.ar      1 <0>        -0.0829
      3 C3          4.8533    4.0724    0.1250 C.ar      1 <0>        -0.0981
      4 C4          3.6461    3.4041    0.0482 C.ar      1 <0>        -0.1097
      5 C5          2.4558    4.1161    0.0806 C.ar      1 <0>         0.1377
      6 C6          2.4826    5.5066    0.1854 C.ar      1 <0>         0.0970
      7 C7          3.6988    6.1685    0.2663 C.ar      1 <0>        -0.1070
      8 N1          1.2847    6.2321    0.2133 N.am      1 <0>        -0.6544
      9 C8          1.2453    7.4454    0.7987 C.2       1 <0>         0.4924
     10 O1          2.2181    7.8662    1.3884 O.2       1 <0>        -0.5138
     11 C9         -0.0076    8.2793    0.7207 C.3       1 <0>        -0.0191
     12 N2          0.2033    9.5475    1.4314 N.4       1 <0>        -0.6726
     13 N3          1.2320    3.4415    0.0025 N.am      1 <0>        -0.6827
     14 C10         1.1662    2.2310   -0.5865 C.2       1 <0>         0.5536
     15 O2          2.1475    1.7688   -1.1390 O.2       1 <0>        -0.5148
     16 C11        -0.0847    1.4725   -0.5619 C.2       1 <0>        -0.2363
     17 C12        -0.1506    0.2609   -1.1514 C.2       1 <0>         0.0080
     18 C13        -1.4082   -0.5018   -1.1266 C.ar      1 <0>        -0.1008
     19 C14        -2.5362    0.0241   -0.4875 C.ar      1 <0>        -0.0687
     20 C15        -3.7122   -0.6937   -0.4713 C.ar      1 <0>        -0.1582
     21 C16        -3.7767   -1.9388   -1.0787 C.ar      1 <0>         0.1204
     22 C17        -2.6609   -2.4679   -1.7098 C.ar      1 <0>        -0.1551
     23 C18        -1.4799   -1.7585   -1.7370 C.ar      1 <0>        -0.0572
     24 F1         -4.9315   -2.6396   -1.0551 F         1 <0>        -0.1315
     25 H1          7.0206    5.4417    0.2758 H         1 <0>         0.0717
     26 H2          6.2534    6.7320    1.2623 H         1 <0>         0.0722
     27 H3          6.2891    6.8718   -0.5282 H         1 <0>         0.0714
     28 H4          5.7789    3.5166    0.0997 H         1 <0>         0.1331
     29 H5          3.6293    2.3276   -0.0373 H         1 <0>         0.1541
     30 H6          3.7231    7.2449    0.3509 H         1 <0>         0.1444
     31 H7          0.3762    5.8115   -0.2426 H         1 <0>         0.4382
     32 H8         -0.2462    8.4849   -0.3333 H         1 <0>         0.1610
     33 H9         -0.8414    7.7327    1.1855 H         1 <0>         0.1599
     34 H10        -0.7112   10.1562    1.3745 H         1 <0>         0.4682
     35 H11         1.0371   10.0940    0.9665 H         1 <0>         0.4654
     36 H12         0.3239    3.8992    0.4218 H         1 <0>         0.4236
     37 H13        -0.9714    1.8902   -0.0627 H         1 <0>         0.1345
     38 H14         0.7361   -0.1568   -1.6507 H         1 <0>         0.1451
     39 H15        -2.4861    0.9917   -0.0106 H         1 <0>         0.1360
     40 H16        -4.5846   -0.2876    0.0191 H         1 <0>         0.1414
     41 H17        -2.7176   -3.4382   -2.1806 H         1 <0>         0.1443
     42 H18        -0.6115   -2.1720   -2.2282 H         1 <0>         0.1423
     43 H19         0.4419    9.3419    2.4853 H         1 <0>         0.4654
@<TRIPOS>BOND
     1    1    2 1
     2    1   25 1
     3    1   26 1
     4    1   27 1
     5    2    7 ar
     6    2    3 ar
     7    3    4 ar
     8    3   28 1
     9    4    5 ar
    10    4   29 1
    11    5    6 ar
    12    5   13 1
    13    6    7 ar
    14    6    8 1
    15    7   30 1
    16    8    9 am
    17    8   31 1
    18    9   10 2
    19    9   11 1
    20   11   12 1
    21   11   32 1
    22   11   33 1
    23   12   34 1
    24   12   35 1
    25   12   43 1
    26   13   14 am
    27   13   36 1
    28   14   15 2
    29   14   16 1
    30   16   17 2
    31   16   37 1
    32   17   18 1
    33   17   38 1
    34   18   23 ar
    35   18   19 ar
    36   19   20 ar
    37   19   39 1
    38   20   21 ar
    39   20   40 1
    40   21   22 ar
    41   21   24 1
    42   22   23 ar
    43   22   41 1
    44   23   42 1
@<TRIPOS>MOLECULE
ZINC40674944
   42    42     0     0     0
SMALL
USER_CHARGES

@<TRIPOS>ATOM
      1 C1         -0.0184    1.5028    0.0103 C.3       1 <0>        -0.1176
      2 C2          0.0021   -0.0041    0.0020 C.ar      1 <0>        -0.1035
      3 C3          0.0057   -0.6876   -1.2000 C.ar      1 <0>        -0.0657
      4 C4          0.0240   -2.0689   -1.2108 C.ar      1 <0>        -0.1985
      5 C5          0.0391   -2.7708   -0.0143 C.ar      1 <0>         0.1380
      6 C6          0.0359   -2.0827    1.1910 C.ar      1 <0>        -0.1154
      7 C7          0.0229   -0.7004    1.1961 C.ar      1 <0>        -0.0527
      8 Br1         0.0559   -3.0351    2.8246 Br        1 <0>        -0.0276
      9 O1          0.0567   -4.1298   -0.0224 O.3       1 <0>        -0.2887
     10 C8          0.0584   -4.7710   -1.2995 C.3       1 <0>         0.0279
     11 C9          0.0790   -6.2888   -1.1081 C.3       1 <0>         0.0880
     12 H1         -0.7558   -6.5864   -0.4735 H         1 <0>         0.1374
     13 C10        -0.0448   -6.9763   -2.4693 C.3       1 <0>        -0.0533
     14 N1         -0.1454   -8.4291   -2.2768 N.4       1 <0>        -0.4996
     15 C11        -0.2643   -9.0891   -3.5838 C.3       1 <0>         0.0430
     16 C12        -1.5177   -8.5814   -4.2994 C.3       1 <0>        -0.1696
     17 C13         0.9702   -8.7711   -4.4299 C.3       1 <0>        -0.1775
     18 C14        -0.3675  -10.5796   -3.3864 C.2       1 <0>         0.5080
     19 O2         -1.0619  -11.2428   -4.1272 O.2       1 <0>        -0.4728
     20 N2          0.3118  -11.1755   -2.3865 N.am      1 <0>        -0.8479
     21 O3          1.3083   -6.6743   -0.4898 O.3       1 <0>        -0.5402
     22 H2          1.0042    1.8801    0.0026 H         1 <0>         0.0767
     23 H3         -0.5455    1.8639   -0.8728 H         1 <0>         0.0721
     24 H4         -0.5286    1.8543    0.9071 H         1 <0>         0.0726
     25 H5         -0.0061   -0.1411   -2.1314 H         1 <0>         0.1356
     26 H6          0.0261   -2.6020   -2.1500 H         1 <0>         0.1329
     27 H7          0.0245   -0.1642    2.1335 H         1 <0>         0.1438
     28 H8         -0.8381   -4.4863   -1.8502 H         1 <0>         0.0841
     29 H9          0.9417   -4.4633   -1.8593 H         1 <0>         0.0798
     30 H10        -0.9377   -6.6146   -2.9791 H         1 <0>         0.1543
     31 H11         0.8347   -6.7497   -3.0721 H         1 <0>         0.1474
     32 H12         0.6812   -8.7639   -1.8049 H         1 <0>         0.4285
     33 H13        -1.4430   -7.5034   -4.4423 H         1 <0>         0.0939
     34 H14        -1.6059   -9.0712   -5.2692 H         1 <0>         0.1208
     35 H15        -2.3971   -8.8080   -3.6967 H         1 <0>         0.0899
     36 H16         1.8631   -9.1328   -3.9201 H         1 <0>         0.0895
     37 H17         0.8820   -9.2608   -5.3997 H         1 <0>         0.1179
     38 H18         1.0449   -7.6931   -4.5727 H         1 <0>         0.0987
     39 H19         0.8672  -10.6451   -1.7939 H         1 <0>         0.3969
     40 H20         0.2454  -12.1349   -2.2594 H         1 <0>         0.4281
     41 H21         2.0956   -6.4404   -1.0002 H         1 <0>         0.3905
     42 H22        -0.9595   -8.6389   -1.7189 H         1 <0>         0.4346
@<TRIPOS>BOND
     1    1    2 1
     2    1   22 1
     3    1   23 1
     4    1   24 1
     5    2    7 ar
     6    2    3 ar
     7    3    4 ar
     8    3   25 1
     9    4    5 ar
    10    4   26 1
    11    5    6 ar
    12    5    9 1
    13    6    7 ar
    14    6    8 1
    15    7   27 1
    16    9   10 1
    17   10   11 1
    18   10   28 1
    19   10   29 1
    20   11   12 1
    21   11   13 1
    22   11   21 1
    23   13   14 1
    24   13   30 1
    25   13   31 1
    26   14   15 1
    27   14   32 1
    28   14   42 1
    29   15   16 1
    30   15   17 1
    31   15   18 1
    32   16   33 1
    33   16   34 1
    34   16   35 1
    35   17   36 1
    36   17   37 1
    37   17   38 1
    38   18   19 2
    39   18   20 am
    40   20   39 1
    41   20   40 1
    42   21   41 1
@<TRIPOS>MOLECULE
ZINC44289741
   35    36     0     0     0
SMALL
USER_CHARGES

@<TRIPOS>ATOM
      1 C1          0.0173    1.5268    0.0294 C.3       1 <0>        -0.1568
      2 C2          0.0274   -0.0031    0.0153 C.3       1 <0>        -0.1521
      3 C3          0.7425   -0.4968   -1.2440 C.3       1 <0>        -0.0099
      4 N1          0.7523   -1.9657   -1.2575 N.4       1 <0>        -0.4968
      5 C4          1.4388   -2.4398   -2.4666 C.3       1 <0>        -0.0278
      6 C5          1.4488   -3.9467   -2.4804 C.2       1 <0>         0.5003
      7 O1          0.9345   -4.5649   -1.5724 O.2       1 <0>        -0.5065
      8 N2          2.0292   -4.6074   -3.5018 N.am      1 <0>        -0.6391
      9 C6          2.1413   -6.0034   -3.4594 C.ar      1 <0>         0.1642
     10 C7          2.1539   -6.6601   -2.2378 C.ar      1 <0>        -0.1072
     11 C8          2.2650   -8.0408   -2.1990 C.ar      1 <0>         0.1308
     12 C9          2.3637   -8.7660   -3.3886 C.ar      1 <0>         0.0969
     13 C10         2.3506   -8.1043   -4.6068 C.ar      1 <0>        -0.0505
     14 C11         2.2341   -6.7283   -4.6425 C.ar      1 <0>        -0.1083
     15 Br1         2.2079   -5.8272   -6.3048 Br        1 <0>        -0.0179
     16 N3          2.4613  -10.1110   -3.0328 N.am      1 <0>        -0.6364
     17 H1          2.5428  -10.8565   -3.6480 H         1 <0>         0.4435
     18 C12         2.4234  -10.1979   -1.6899 C.2       1 <0>         0.6872
     19 O2          2.4863  -11.2328   -1.0527 O.2       1 <0>        -0.5319
     20 N4          2.3055   -8.9666   -1.1585 N.am      1 <0>        -0.6373
     21 H2          2.2570   -8.7592   -0.2122 H         1 <0>         0.4412
     22 H3          1.0425    1.8970    0.0250 H         1 <0>         0.0679
     23 H4         -0.5056    1.8948   -0.8533 H         1 <0>         0.0680
     24 H5         -0.4921    1.8785    0.9265 H         1 <0>         0.0791
     25 H6          0.5504   -0.3711    0.8980 H         1 <0>         0.0886
     26 H7         -0.9978   -0.3733    0.0197 H         1 <0>         0.0888
     27 H8          0.2196   -0.1288   -2.1267 H         1 <0>         0.1358
     28 H9          1.7677   -0.1266   -1.2484 H         1 <0>         0.1357
     29 H10         1.2364   -2.3064   -0.4404 H         1 <0>         0.4359
     30 H11         0.9159   -2.0717   -3.3493 H         1 <0>         0.1678
     31 H12         2.4641   -2.0696   -2.4709 H         1 <0>         0.1687
     32 H13         2.3692   -4.1164   -4.2661 H         1 <0>         0.4247
     33 H14         2.0778   -6.0969   -1.3194 H         1 <0>         0.1616
     34 H15         2.4269   -8.6644   -5.5271 H         1 <0>         0.1553
     35 H16        -0.1968   -2.3084   -1.2534 H         1 <0>         0.4367
@<TRIPOS>BOND
     1    1    2 1
     2    1   22 1
     3    1   23 1
     4    1   24 1
     5    2    3 1
     6    2   25 1
     7    2   26 1
     8    3    4 1
     9    3   27 1
    10    3   28 1
    11    4    5 1
    12    4   29 1
    13    4   35 1
    14    5    6 1
    15    5   30 1
    16    5   31 1
    17    6    7 2
    18    6    8 am
    19    8    9 1
    20    8   32 1
    21    9   14 ar
    22    9   10 ar
    23   10   11 ar
    24   10   33 1
    25   11   20 1
    26   11   12 ar
    27   12   13 ar
    28   12   16 1
    29   13   14 ar
    30   13   34 1
    31   14   15 1
    32   16   17 1
    33   16   18 am
    34   18   19 2
    35   18   20 am
    36   20   21 1
@<TRIPOS>MOLECULE
ZINC57802249
   49    51     0     0     0
SMALL
USER_CHARGES

@<TRIPOS>ATOM
      1 C1          1.2105    1.3173    0.0450 C.3       1 <0>        -0.1195
      2 C2          0.7519   -0.1179    0.0767 C.ar      1 <0>        -0.0848
      3 C3          0.7261   -0.8521   -1.0870 C.ar      1 <0>        -0.0555
      4 C4          0.3007   -2.1840   -1.0586 C.ar      1 <0>         0.0492
      5 C5         -0.0963   -2.7569    0.1628 C.ar      1 <0>         0.0572
      6 C6         -0.0633   -2.0005    1.3254 C.ar      1 <0>        -0.1354
      7 C7          0.3644   -0.6901    1.2799 C.ar      1 <0>        -0.0506
      8 C8          0.4052    0.1280    2.5448 C.3       1 <0>        -0.1203
      9 N1         -0.4572   -4.0601   -0.1220 N.pl3     1 <0>        -0.4917
     10 C9         -0.2777   -4.2453   -1.4665 C.2       1 <0>         0.3213
     11 N2          0.1678   -3.1391   -2.0111 N.2       1 <0>        -0.4571
     12 C10        -0.5452   -5.5035   -2.1946 C.ar      1 <0>        -0.0192
     13 C11        -0.3420   -6.7326   -1.5647 C.ar      1 <0>        -0.1516
     14 C12        -0.5912   -7.9064   -2.2446 C.ar      1 <0>        -0.1634
     15 C13        -1.0445   -7.8701   -3.5548 C.ar      1 <0>         0.0733
     16 C14        -1.2499   -6.6459   -4.1908 C.ar      1 <0>         0.2099
     17 C15        -1.0069   -5.4648   -3.5114 C.ar      1 <0>        -0.1233
     18 N3         -1.7066   -6.6117   -5.5135 N.pl3     1 <0>        -0.8637
     19 O1         -1.2886   -9.0297   -4.2205 O.3       1 <0>        -0.3153
     20 C16        -1.0567  -10.2472   -3.5093 C.3       1 <0>         0.0289
     21 C17        -0.9411   -5.0573    0.8359 C.3       1 <0>         0.1227
     22 H1         -0.3317   -5.9580    0.7618 H         1 <0>         0.1166
     23 C18        -0.8442   -4.4913    2.2541 C.3       1 <0>        -0.1960
     24 C19        -2.3987   -5.4005    0.5223 C.3       1 <0>        -0.0320
     25 N4         -2.8390   -6.5036    1.3869 N.4       1 <0>        -0.6309
     26 H2          2.2881    1.3579    0.2036 H         1 <0>         0.0761
     27 H3          0.9691    1.7545   -0.9238 H         1 <0>         0.0715
     28 H4          0.7060    1.8774    0.8323 H         1 <0>         0.0735
     29 H5          1.0331   -0.4011   -2.0191 H         1 <0>         0.1359
     30 H6         -0.3677   -2.4381    2.2646 H         1 <0>         0.1344
     31 H7         -0.5520    0.6306    2.6836 H         1 <0>         0.0769
     32 H8          0.5985   -0.5266    3.3947 H         1 <0>         0.0680
     33 H9          1.1987    0.8716    2.4711 H         1 <0>         0.0777
     34 H10         0.0110   -6.7643   -0.5445 H         1 <0>         0.1199
     35 H11        -0.4326   -8.8563   -1.7556 H         1 <0>         0.1369
     36 H12        -1.1695   -4.5157   -4.0004 H         1 <0>         0.1434
     37 H13        -1.8803   -7.4396   -5.9882 H         1 <0>         0.4095
     38 H14        -1.8493   -5.7601   -5.9555 H         1 <0>         0.4056
     39 H15        -0.0107  -10.2978   -3.2070 H         1 <0>         0.0589
     40 H16        -1.6925  -10.2780   -2.6245 H         1 <0>         0.0539
     41 H17        -1.2899  -11.0946   -4.1540 H         1 <0>         0.1059
     42 H18        -1.1108   -5.2656    2.9734 H         1 <0>         0.0814
     43 H19         0.1757   -4.1559    2.4425 H         1 <0>         0.1016
     44 H20        -1.5284   -3.6490    2.3567 H         1 <0>         0.0911
     45 H21        -3.0245   -4.5263    0.7016 H         1 <0>         0.1452
     46 H22        -2.4847   -5.7009   -0.5220 H         1 <0>         0.1464
     47 H23        -2.2597   -7.3128    1.2209 H         1 <0>         0.4369
     48 H24        -2.7594   -6.2255    2.3536 H         1 <0>         0.4354
     49 H25        -3.8003   -6.7299    1.1800 H         1 <0>         0.4453
@<TRIPOS>BOND
     1    1    2 1
     2    1   26 1
     3    1   27 1
     4    1   28 1
     5    2    7 ar
     6    2    3 ar
     7    3    4 ar
     8    3   29 1
     9    4   11 1
    10    4    5 ar
    11    5    6 ar
    12    5    9 1
    13    6    7 ar
    14    6   30 1
    15    7    8 1
    16    8   31 1
    17    8   32 1
    18    8   33 1
    19    9   10 1
    20    9   21 1
    21   10   11 2
    22   10   12 1
    23   12   17 ar
    24   12   13 ar
    25   13   14 ar
    26   13   34 1
    27   14   15 ar
    28   14   35 1
    29   15   16 ar
    30   15   19 1
    31   16   17 ar
    32   16   18 1
    33   17   36 1
    34   18   37 1
    35   18   38 1
    36   19   20 1
    37   20   39 1
    38   20   40 1
    39   20   41 1
    40   21   22 1
    41   21   23 1
    42   21   24 1
    43   23   42 1
    44   23   43 1
    45   23   44 1
    46   24   25 1
    47   24   45 1
    48   24   46 1
    49   25   47 1
    50   25   48 1
    51   25   49 1
@<TRIPOS>MOLECULE
ZINC66599143
   56    57     0     0     0
SMALL
USER_CHARGES

@<TRIPOS>ATOM
      1 C1         -0.0187    1.5258    0.0104 C.3       1 <0>        -0.1392
      2 C2          0.0021   -0.0041    0.0020 C.3       1 <0>        -0.0781
      3 C3          0.7833   -0.5152   -1.2261 C.3       1 <0>        -0.1165
      4 C4          2.2135   -0.7684   -0.6880 C.3       1 <0>        -0.1256
      5 C5          1.9501   -1.3392    0.7276 C.3       1 <0>        -0.1264
      6 C6          0.7439   -0.5280    1.2442 C.3       1 <0>        -0.1147
      7 C7         -1.4281   -0.5471   -0.0221 C.3       1 <0>         0.1488
      8 N1         -2.1174   -0.0544   -1.2173 N.am      1 <0>        -0.7379
      9 C8         -3.3975   -0.4059   -1.4499 C.2       1 <0>         0.7035
     10 O1         -3.9803   -1.1320   -0.6679 O.2       1 <0>        -0.5827
     11 N2         -4.0317    0.0474   -2.5494 N.am      1 <0>        -0.7530
     12 C9         -5.4232   -0.3348   -2.8023 C.3       1 <0>         0.1433
     13 C10        -5.9003    0.3096   -4.1054 C.3       1 <0>        -0.1618
     14 C11        -7.3535   -0.0894   -4.3695 C.3       1 <0>        -0.0056
     15 N3         -7.8116    0.5293   -5.6206 N.4       1 <0>        -0.3811
     16 C12        -7.8226    1.9890   -5.4674 C.3       1 <0>        -0.0168
     17 C13        -8.2212    2.6418   -6.7928 C.3       1 <0>        -0.1420
     18 C14        -9.6178    2.1584   -7.1939 C.3       1 <0>        -0.1320
     19 C15        -9.6134    0.6293   -7.2783 C.3       1 <0>        -0.1328
     20 H1         -8.9252    0.3100   -8.0609 H         1 <0>         0.1225
     21 C16        -9.1633    0.0512   -5.9349 C.3       1 <0>         0.0098
     22 C17       -11.0020    0.1390   -7.5983 C.2       1 <0>         0.5279
     23 O2        -11.5750   -0.6037   -6.8295 O.2       1 <0>        -0.5313
     24 N4        -11.6071    0.5257   -8.7388 N.am      1 <0>        -0.8421
     25 H2          1.0039    1.9031    0.0027 H         1 <0>         0.0628
     26 H3         -0.5459    1.8868   -0.8726 H         1 <0>         0.0500
     27 H4         -0.5289    1.8773    0.9072 H         1 <0>         0.0593
     28 H5          0.3460   -1.4418   -1.5978 H         1 <0>         0.0679
     29 H6          0.7992    0.2417   -2.0102 H         1 <0>         0.0643
     30 H7          2.7358   -1.4975   -1.3075 H         1 <0>         0.0675
     31 H8          2.7752    0.1639   -0.6302 H         1 <0>         0.0682
     32 H9          1.7011   -2.3989    0.6713 H         1 <0>         0.0668
     33 H10         2.8174   -1.1837    1.3691 H         1 <0>         0.0686
     34 H11         1.0891    0.3076    1.8530 H         1 <0>         0.0719
     35 H12         0.0853   -1.1698    1.8293 H         1 <0>         0.0693
     36 H13        -1.4028   -1.6367   -0.0406 H         1 <0>         0.0702
     37 H14        -1.9595   -0.2110    0.8682 H         1 <0>         0.0691
     38 H15        -1.6525    0.5249   -1.8411 H         1 <0>         0.3966
     39 H16        -3.5668    0.6266   -3.1733 H         1 <0>         0.3972
     40 H17        -5.4926   -1.4193   -2.8866 H         1 <0>         0.0776
     41 H18        -6.0492    0.0064   -1.9778 H         1 <0>         0.0773
     42 H19        -5.8309    1.3941   -4.0211 H         1 <0>         0.0944
     43 H20        -5.2742   -0.0315   -4.9299 H         1 <0>         0.0948
     44 H21        -7.4229   -1.1740   -4.4538 H         1 <0>         0.1386
     45 H22        -7.9795    0.2517   -3.5450 H         1 <0>         0.1369
     46 H23        -8.5401    2.2675   -4.6956 H         1 <0>         0.1324
     47 H24        -6.8288    2.3312   -5.1788 H         1 <0>         0.1349
     48 H25        -8.2305    3.7255   -6.6765 H         1 <0>         0.1189
     49 H26        -7.5041    2.3641   -7.5654 H         1 <0>         0.0918
     50 H27       -10.3434    2.4802   -6.4469 H         1 <0>         0.0908
     51 H28        -9.8832    2.5762   -8.1651 H         1 <0>         0.1003
     52 H29        -9.1592   -1.0374   -5.9914 H         1 <0>         0.1412
     53 H30        -9.8522    0.3709   -5.1531 H         1 <0>         0.1398
     54 H31       -11.1488    1.1196   -9.3537 H         1 <0>         0.4063
     55 H32       -12.5008    0.2101   -8.9448 H         1 <0>         0.4157
     56 H33        -7.1840    0.2764   -6.3691 H         1 <0>         0.4223
@<TRIPOS>BOND
     1    1    2 1
     2    1   25 1
     3    1   26 1
     4    1   27 1
     5    2    6 1
     6    2    3 1
     7    2    7 1
     8    3    4 1
     9    3   28 1
    10    3   29 1
    11    4    5 1
    12    4   30 1
    13    4   31 1
    14    5    6 1
    15    5   32 1
    16    5   33 1
    17    6   34 1
    18    6   35 1
    19    7    8 1
    20    7   36 1
    21    7   37 1
    22    8    9 am
    23    8   38 1
    24    9   10 2
    25    9   11 am
    26   11   12 1
    27   11   39 1
    28   12   13 1
    29   12   40 1
    30   12   41 1
    31   13   14 1
    32   13   42 1
    33   13   43 1
    34   14   15 1
    35   14   44 1
    36   14   45 1
    37   15   21 1
    38   15   16 1
    39   15   56 1
    40   16   17 1
    41   16   46 1
    42   16   47 1
    43   17   18 1
    44   17   48 1
    45   17   49 1
    46   18   19 1
    47   18   50 1
    48   18   51 1
    49   19   20 1
    50   19   21 1
    51   19   22 1
    52   21   52 1
    53   21   53 1
    54   22   23 2
    55   22   24 am
    56   24   54 1
    57   24   55 1
@<TRIPOS>MOLECULE
ZINC16478070
   39    40     0     0     0
SMALL
USER_CHARGES
(1R,2R,3S,4R)-1-[(2R)-5-phenyl-2,3-dihydro-1,3,4-thiadiazol-2-yl]pentane-1,2,3,4,5-pentol
@<TRIPOS>ATOM
      1 C1         -2.4707   -3.5921    8.4739 C.ar      1 <0>        -0.1050
      2 C2         -1.2423   -3.2524    9.0123 C.ar      1 <0>        -0.1191
      3 C3         -0.4497   -2.3102    8.3899 C.ar      1 <0>        -0.0825
      4 C4         -0.8893   -1.6996    7.2143 C.ar      1 <0>        -0.0042
      5 C5         -2.1317   -2.0433    6.6791 C.ar      1 <0>        -0.0901
      6 C6         -2.9122   -2.9908    7.3086 C.ar      1 <0>        -0.1168
      7 C7         -0.0453   -0.6887    6.5423 C.2       1 <0>         0.1210
      8 N1          1.1244   -0.2531    6.9046 N.2       1 <0>        -0.2372
      9 N2          1.8281    0.6983    6.1987 N.pl3     1 <0>        -0.6096
     10 C8          1.1574    1.2018    4.9789 C.3       1 <0>         0.1277
     11 H1          0.9527    2.2700    5.0510 H         1 <0>         0.1088
     12 S1         -0.3957    0.2167    5.0436 S.3       1 <0>        -0.1392
     13 C9          1.9697    0.8786    3.7232 C.3       1 <0>         0.0824
     14 H2          2.0717   -0.2021    3.6248 H         1 <0>         0.1179
     15 C10         1.2513    1.4372    2.4933 C.3       1 <0>         0.0517
     16 H3          1.1492    2.5179    2.5918 H         1 <0>         0.1119
     17 C11         2.0636    1.1140    1.2377 C.3       1 <0>         0.0519
     18 H4          3.0180    1.6389    1.2773 H         1 <0>         0.1216
     19 C12         1.2864    1.5618   -0.0018 C.3       1 <0>         0.0824
     20 H5          1.1856    2.6471    0.0050 H         1 <0>         0.1122
     21 C13         2.0397    1.1274   -1.2607 C.3       1 <0>         0.0474
     22 O1          1.3761    1.6452   -2.4154 O.3       1 <0>        -0.5656
     23 O2         -0.0110    0.9628    0.0073 O.3       1 <0>        -0.5263
     24 O3          2.2968   -0.2943    1.1706 O.3       1 <0>        -0.5456
     25 O4         -0.0445    0.8440    2.3882 O.3       1 <0>        -0.5140
     26 O5          3.2654    1.4718    3.8284 O.3       1 <0>        -0.5377
     27 H6         -3.0876   -4.3300    8.9652 H         1 <0>         0.1274
     28 H7         -0.9033   -3.7257    9.9219 H         1 <0>         0.1295
     29 H8          0.5087   -2.0455    8.8115 H         1 <0>         0.1313
     30 H9         -2.4796   -1.5712    5.7722 H         1 <0>         0.1282
     31 H10        -3.8720   -3.2606    6.8932 H         1 <0>         0.1305
     32 H11         2.7005    1.0155    6.4801 H         1 <0>         0.4394
     33 H12         3.0592    1.5115   -1.2247 H         1 <0>         0.0539
     34 H13         2.0631    0.0389   -1.3127 H         1 <0>         0.0547
     35 H14         1.7999    1.4086   -3.2518 H         1 <0>         0.3815
     36 H15         0.0021   -0.0041    0.0020 H         1 <0>         0.3632
     37 H16         1.4895   -0.8253    1.1328 H         1 <0>         0.3692
     38 H17        -0.0302   -0.1187    2.2975 H         1 <0>         0.3707
     39 H18         3.2511    2.4345    3.9190 H         1 <0>         0.3764
@<TRIPOS>BOND
     1    1    6 ar
     2    1    2 ar
     3    1   27 1
     4    2    3 ar
     5    2   28 1
     6    3    4 ar
     7    3   29 1
     8    4    5 ar
     9    4    7 1
    10    5    6 ar
    11    5   30 1
    12    6   31 1
    13    7   12 1
    14    7    8 2
    15    8    9 1
    16    9   10 1
    17    9   32 1
    18   10   11 1
    19   10   12 1
    20   10   13 1
    21   13   14 1
    22   13   15 1
    23   13   26 1
    24   15   16 1
    25   15   17 1
    26   15   25 1
    27   17   18 1
    28   17   19 1
    29   17   24 1
    30   19   20 1
    31   19   21 1
    32   19   23 1
    33   21   22 1
    34   21   33 1
    35   21   34 1
    36   22   35 1
    37   23   36 1
    38   24   37 1
    39   25   38 1
    40   26   39 1
@<TRIPOS>MOLECULE
ZINC37660687
   36    36     0     0     0
SMALL
USER_CHARGES

@<TRIPOS>ATOM
      1 C1         -0.0036    1.3724   -0.2038 C.ar      1 <0>         0.0659
      2 C2          1.1914    2.0623   -0.2656 C.ar      1 <0>        -0.2000
      3 C3          2.3905    1.3901   -0.0669 C.ar      1 <0>         0.3252
      4 C4          2.3833    0.0254    0.1935 C.ar      1 <0>        -0.1403
      5 C5          1.1851   -0.6581    0.2539 C.ar      1 <0>         0.0890
      6 C6         -0.0072    0.0144    0.0555 C.ar      1 <0>        -0.7340
      7 S1         -1.5340   -0.8617    0.1334 S.o2      1 <0>         2.7040
      8 O1         -1.3000   -2.0154    0.9294 O.2       1 <0>        -0.9498
      9 O2         -2.5350    0.0946    0.4537 O.2       1 <0>        -0.9501
     10 N1         -1.8673   -1.4016   -1.3962 N.pl3     1 <0>        -1.1145
     11 C7         -0.9917   -2.3896   -2.0313 C.3       1 <0>         0.1113
     12 C8         -1.6992   -2.9912   -3.2472 C.3       1 <0>        -0.1129
     13 C9         -0.7847   -4.0230   -3.9105 C.3       1 <0>        -0.1440
     14 C10        -1.4815   -4.6155   -5.1082 C.2       1 <0>         0.5159
     15 O3         -2.5995   -4.2487   -5.4022 O.2       1 <0>        -0.5427
     16 N2         -0.8623   -5.5531   -5.8525 N.am      1 <0>        -0.8576
     17 N3          3.6587   -0.6951    0.4054 N.pl3     1 <0>         0.0410
     18 O4          3.7974   -1.8172   -0.0227 O.2       1 <0>        -0.1352
     19 O5          4.5617   -0.1615    1.0067 O.3       1 <0>        -0.1787
     20 N4          3.6008    2.0845   -0.1291 N.pl3     1 <0>        -0.5598
     21 N5          3.6024    3.4424   -0.2770 N.3       1 <0>        -0.5994
     22 H1         -0.9366    1.8953   -0.3539 H         1 <0>         0.1597
     23 H2          1.1935    3.1230   -0.4686 H         1 <0>         0.1578
     24 H3          1.1788   -1.7189    0.4562 H         1 <0>         0.1644
     25 H4         -2.6424   -1.0637   -1.8716 H         1 <0>         0.4230
     26 H5         -0.0689   -1.9052   -2.3507 H         1 <0>         0.0672
     27 H6         -0.7589   -3.1804   -1.3182 H         1 <0>         0.0854
     28 H7         -2.6219   -3.4756   -2.9278 H         1 <0>         0.0836
     29 H8         -1.9319   -2.2003   -3.9603 H         1 <0>         0.0804
     30 H9          0.1381   -3.5386   -4.2299 H         1 <0>         0.0992
     31 H10        -0.5519   -4.8138   -3.1975 H         1 <0>         0.1019
     32 H11         0.0318   -5.8465   -5.6173 H         1 <0>         0.4029
     33 H12        -1.3109   -5.9345   -6.6234 H         1 <0>         0.4026
     34 H13         4.4403    1.6024   -0.0673 H         1 <0>         0.4190
     35 H14         4.5447    3.8020   -0.3057 H         1 <0>         0.3736
     36 H15         3.0853    3.7172   -1.0987 H         1 <0>         0.3461
@<TRIPOS>BOND
     1    1    6 ar
     2    1    2 ar
     3    1   22 1
     4    2    3 ar
     5    2   23 1
     6    3    4 ar
     7    3   20 1
     8    4    5 ar
     9    4   17 1
    10    5    6 ar
    11    5   24 1
    12    6    7 1
    13    7    8 2
    14    7    9 2
    15    7   10 1
    16   10   11 1
    17   10   25 1
    18   11   12 1
    19   11   26 1
    20   11   27 1
    21   12   13 1
    22   12   28 1
    23   12   29 1
    24   13   14 1
    25   13   30 1
    26   13   31 1
    27   14   15 2
    28   14   16 am
    29   16   32 1
    30   16   33 1
    31   17   18 2
    32   17   19 1
    33   20   21 1
    34   20   34 1
    35   21   35 1
    36   21   36 1
@<TRIPOS>MOLECULE
ZINC16887388
   44    43     0     0     0
SMALL
USER_CHARGES

@<TRIPOS>ATOM
      1 C1         -0.5272    1.1650    0.4549 C.3       1 <0>        -0.1528
      2 C2         -0.4223   -0.3525    0.2909 C.3       1 <0>         0.0613
      3 O1          0.2835   -0.6537   -0.9146 O.3       1 <0>        -0.3492
      4 C3          0.4626   -1.9513   -1.2079 C.2       1 <0>         0.4760
      5 O2          0.0343   -2.8031   -0.4657 O.2       1 <0>        -0.5041
      6 C4          1.1978   -2.3456   -2.4629 C.3       1 <0>        -0.0660
      7 H1          2.1260   -1.7785   -2.5336 H         1 <0>         0.1207
      8 C5          1.5163   -3.8414   -2.4187 C.3       1 <0>         0.0453
      9 C6          2.2626   -4.2332   -3.6680 C.2       1 <0>         0.1141
     10 N1          2.6191   -3.3360   -4.5085 N.2       1 <0>        -0.2408
     11 N2          3.2175   -3.7085   -5.7192 N.am      1 <0>        -0.5876
     12 C7          3.6865   -2.7636   -6.5580 C.2       1 <0>         0.7342
     13 O3          4.1230   -3.0804   -7.6478 O.2       1 <0>        -0.5820
     14 N3          3.6718   -1.4674   -6.1888 N.am      1 <0>        -0.8490
     15 C8          2.5893   -5.6813   -3.9276 C.3       1 <0>        -0.1663
     16 C9          2.3674   -4.1384   -1.2111 C.2       1 <0>         0.1234
     17 N4          2.8037   -3.1794   -0.4840 N.2       1 <0>        -0.2520
     18 N5          3.6919   -3.4449    0.5664 N.am      1 <0>        -0.5852
     19 C10         4.0780   -2.4503    1.3900 C.2       1 <0>         0.7349
     20 O4          4.7741   -2.6967    2.3560 O.2       1 <0>        -0.5835
     21 N6          3.6925   -1.1828    1.1428 N.am      1 <0>        -0.8495
     22 C11         2.7049   -5.5644   -0.8594 C.3       1 <0>        -0.1618
     23 C12         0.3231   -2.0461   -3.6819 C.3       1 <0>        -0.1532
     24 H2          0.4732    1.5953    0.5023 H         1 <0>         0.0670
     25 H3         -1.0639    1.5861   -0.3953 H         1 <0>         0.0672
     26 H4         -1.0655    1.3948    1.3744 H         1 <0>         0.0791
     27 H5          0.1144   -0.7736    1.1411 H         1 <0>         0.0662
     28 H6         -1.4226   -0.7829    0.2434 H         1 <0>         0.0662
     29 H7          0.5877   -4.4089   -2.3573 H         1 <0>         0.1331
     30 H8          3.2943   -4.6466   -5.9538 H         1 <0>         0.4047
     31 H9          3.3918   -1.2214   -5.2933 H         1 <0>         0.4075
     32 H10         3.9413   -0.7807   -6.8186 H         1 <0>         0.4162
     33 H11         2.1310   -6.3010   -3.1569 H         1 <0>         0.0928
     34 H12         2.2028   -5.9714   -4.9046 H         1 <0>         0.0828
     35 H13         3.6705   -5.8188   -3.9092 H         1 <0>         0.0860
     36 H14         4.0290   -4.3444    0.7009 H         1 <0>         0.4039
     37 H15         3.1990   -0.9749    0.3340 H         1 <0>         0.4061
     38 H16         3.9084   -0.4784    1.7738 H         1 <0>         0.4151
     39 H17         3.6020   -5.8690   -1.3985 H         1 <0>         0.0883
     40 H18         2.8818   -5.6419    0.2134 H         1 <0>         0.0742
     41 H19         1.8752   -6.2137   -1.1387 H         1 <0>         0.0939
     42 H20        -0.6386   -2.5471   -3.5709 H         1 <0>         0.0597
     43 H21         0.1655   -0.9705   -3.7606 H         1 <0>         0.0735
     44 H22         0.8191   -2.4075   -4.5827 H         1 <0>         0.0894
@<TRIPOS>BOND
     1    1    2 1
     2    1   24 1
     3    1   25 1
     4    1   26 1
     5    2    3 1
     6    2   27 1
     7    2   28 1
     8    3    4 1
     9    4    5 2
    10    4    6 1
    11    6    7 1
    12    6    8 1
    13    6   23 1
    14    8    9 1
    15    8   16 1
    16    8   29 1
    17    9   10 2
    18    9   15 1
    19   10   11 1
    20   11   12 am
    21   11   30 1
    22   12   13 2
    23   12   14 am
    24   14   31 1
    25   14   32 1
    26   15   33 1
    27   15   34 1
    28   15   35 1
    29   16   17 2
    30   16   22 1
    31   17   18 1
    32   18   19 am
    33   18   36 1
    34   19   20 2
    35   19   21 am
    36   21   37 1
    37   21   38 1
    38   22   39 1
    39   22   40 1
    40   22   41 1
    41   23   42 1
    42   23   43 1
    43   23   44 1
@<TRIPOS>MOLECULE
ZINC43258316
   36    37     0     0     0
SMALL
USER_CHARGES

@<TRIPOS>ATOM
      1 C1         -0.0781    1.5240   -0.0652 C.3       1 <0>        -0.1738
      2 C2         -0.0277   -0.0050   -0.0412 C.3       1 <0>        -0.1414
      3 C3         -1.4525   -0.5624   -0.0456 C.3       1 <0>         0.0466
      4 H1         -1.9979   -0.1589   -0.8987 H         1 <0>         0.1574
      5 C4         -1.4029   -2.0882   -0.1474 C.3       1 <0>         0.0016
      6 H2         -0.7903   -2.4866    0.6614 H         1 <0>         0.1519
      7 C5         -0.8045   -2.4841   -1.4727 C.2       1 <0>        -0.1975
      8 C6          0.3066   -3.2187   -1.7217 C.2       1 <0>        -0.0697
      9 C7          0.6712   -3.4599   -3.0335 C.2       1 <0>        -0.1540
     10 C8         -0.0949   -2.9536   -4.0320 C.2       1 <0>        -0.0896
     11 S1         -1.3801   -2.1133   -3.1214 S.3       1 <0>         0.1256
     12 Cl1         0.1160   -3.0927   -5.7495 Cl        1 <0>         0.0409
     13 S2         -3.0839   -2.7578   -0.0188 S.3       1 <0>        -0.0203
     14 C9         -2.8416   -4.4994    0.0941 C.2       1 <0>         0.4084
     15 N1         -3.9171   -5.3113    0.2932 N.am      1 <0>        -0.6180
     16 H3         -4.8049   -4.9283    0.3709 H         1 <0>         0.4205
     17 C10        -3.7501   -6.6474    0.3821 C.2       1 <0>         0.5409
     18 O1         -4.7087   -7.3824    0.5601 O.2       1 <0>        -0.5277
     19 C11        -2.4608   -7.1759    0.2666 C.2       1 <0>        -0.3755
     20 C12        -1.3984   -6.3060    0.0644 C.2       1 <0>         0.4538
     21 N2         -1.6247   -4.9904   -0.0211 N.2       1 <0>        -0.5546
     22 N3         -0.1136   -6.7971   -0.0537 N.pl3     1 <0>        -0.8237
     23 N4         -2.1332   -0.1765    1.1977 N.4       1 <0>        -0.6377
     24 H4          0.9370    1.9211   -0.0620 H         1 <0>         0.0892
     25 H5         -0.5955    1.8564   -0.9651 H         1 <0>         0.0760
     26 H6         -0.6118    1.8837    0.8146 H         1 <0>         0.0551
     27 H7          0.5060   -0.3648   -0.9209 H         1 <0>         0.1203
     28 H8          0.4897   -0.3374    0.8588 H         1 <0>         0.0975
     29 H9          0.8989   -3.6096   -0.9076 H         1 <0>         0.1450
     30 H10         1.5523   -4.0421   -3.2596 H         1 <0>         0.1510
     31 H11        -2.2947   -8.2410    0.3338 H         1 <0>         0.1567
     32 H12         0.0480   -7.7518    0.0047 H         1 <0>         0.4218
     33 H13         0.6276   -6.1875   -0.1950 H         1 <0>         0.4064
     34 H14        -2.2346    0.8269    1.2281 H         1 <0>         0.4434
     35 H15        -3.0447   -0.6079    1.2299 H         1 <0>         0.4348
     36 H16        -1.5876   -0.4835    1.9890 H         1 <0>         0.4384
@<TRIPOS>BOND
     1    1    2 1
     2    1   24 1
     3    1   25 1
     4    1   26 1
     5    2    3 1
     6    2   27 1
     7    2   28 1
     8    3    4 1
     9    3    5 1
    10    3   23 1
    11    5    6 1
    12    5    7 1
    13    5   13 1
    14    7   11 1
    15    7    8 2
    16    8    9 1
    17    8   29 1
    18    9   10 2
    19    9   30 1
    20   10   11 1
    21   10   12 1
    22   13   14 1
    23   14   21 2
    24   14   15 1
    25   15   16 1
    26   15   17 am
    27   17   18 2
    28   17   19 1
    29   19   20 2
    30   19   31 1
    31   20   21 1
    32   20   22 1
    33   22   32 1
    34   22   33 1
    35   23   34 1
    36   23   35 1
    37   23   36 1
@<TRIPOS>MOLECULE
ZINC61807311
   33    33     0     0     0
SMALL
USER_CHARGES

@<TRIPOS>ATOM
      1 C1         -0.1488    1.4596    0.0367 C.ar      1 <0>        -0.0668
      2 C2          1.0003    2.2376    0.0002 C.ar      1 <0>         0.1788
      3 C3          2.2458    1.6286   -0.1084 C.ar      1 <0>         0.0869
      4 C4          2.3355    0.2505   -0.1797 C.ar      1 <0>        -0.1098
      5 C5          1.1873   -0.5211   -0.1435 C.ar      1 <0>         0.0455
      6 C6         -0.0527    0.0832   -0.0350 C.ar      1 <0>        -0.6261
      7 S1         -1.5114   -0.9040    0.0113 S.o2      1 <0>         2.6950
      8 O1         -1.2619   -1.9542    0.9356 O.2       1 <0>        -0.9313
      9 O2         -2.6044   -0.0073    0.1541 O.2       1 <0>        -0.9433
     10 N1         -1.6711   -1.6117   -1.4773 N.pl3     1 <0>        -0.9534
     11 C7         -1.2265   -2.9923   -1.6835 C.3       1 <0>         0.0957
     12 C8         -2.4164   -3.9158   -1.6351 C.2       1 <0>         0.5001
     13 O3         -3.5265   -3.4651   -1.4468 O.2       1 <0>        -0.5312
     14 N2         -2.2470   -5.2425   -1.8009 N.am      1 <0>        -0.8520
     15 C9         -2.2570   -0.8572   -2.5880 C.3       1 <0>         0.0963
     16 C10        -1.1568   -0.2284   -3.4037 C.2       1 <0>         0.4886
     17 O4          0.0025   -0.3942   -3.0883 O.2       1 <0>        -0.5218
     18 N3         -1.4612    0.5182   -4.4837 N.am      1 <0>        -0.8527
     19 Cl1         1.3030   -2.2509   -0.2344 Cl        1 <0>        -0.0398
     20 F1          3.3665    2.3823   -0.1447 F         1 <0>        -0.1272
     21 N4          0.9055    3.6317    0.0722 N.pl3     1 <0>        -0.8666
     22 H1         -1.1170    1.9297    0.1255 H         1 <0>         0.1579
     23 H2          3.3021   -0.2237   -0.2641 H         1 <0>         0.1549
     24 H3         -0.7408   -3.0763   -2.6557 H         1 <0>         0.1165
     25 H4         -0.5208   -3.2677   -0.8998 H         1 <0>         0.1245
     26 H5         -1.3591   -5.6030   -1.9515 H         1 <0>         0.4033
     27 H6         -3.0129   -5.8369   -1.7698 H         1 <0>         0.4057
     28 H7         -2.8373   -1.5307   -3.2186 H         1 <0>         0.1224
     29 H8         -2.9082   -0.0771   -2.1938 H         1 <0>         0.1269
     30 H9         -2.3884    0.6508   -4.7359 H         1 <0>         0.4038
     31 H10        -0.7531    0.9230   -5.0087 H         1 <0>         0.4042
     32 H11         0.0362    4.0554    0.1476 H         1 <0>         0.4082
     33 H12         1.7090    4.1744    0.0466 H         1 <0>         0.4068
@<TRIPOS>BOND
     1    1    6 ar
     2    1    2 ar
     3    1   22 1
     4    2    3 ar
     5    2   21 1
     6    3    4 ar
     7    3   20 1
     8    4    5 ar
     9    4   23 1
    10    5    6 ar
    11    5   19 1
    12    6    7 1
    13    7    8 2
    14    7    9 2
    15    7   10 1
    16   10   11 1
    17   10   15 1
    18   11   12 1
    19   11   24 1
    20   11   25 1
    21   12   13 2
    22   12   14 am
    23   14   26 1
    24   14   27 1
    25   15   16 1
    26   15   28 1
    27   15   29 1
    28   16   17 2
    29   16   18 am
    30   18   30 1
    31   18   31 1
    32   21   32 1
    33   21   33 1
@<TRIPOS>MOLECULE
ZINC15230573
   56    60     0     0     0
SMALL
USER_CHARGES
(2R,3S,4S,5S)-2-[6-amino-8-[(N'E)-N'-[(6-methoxy-2-quinolyl)methylene]hydrazino]purin-9-yl]-5-(hydroxymethyl)tetrahydrofuran-3,4-diol
@<TRIPOS>ATOM
      1 C1          4.4606   -3.6017  -10.4122 C.3       1 <0>         0.0236
      2 O1          3.1664   -3.2371   -9.9282 O.3       1 <0>        -0.3143
      3 C2          3.1137   -2.5932   -8.7326 C.ar      1 <0>         0.1375
      4 C3          4.2982   -2.3207   -8.0417 C.ar      1 <0>        -0.1764
      5 C4          4.2778   -1.6783   -6.8432 C.ar      1 <0>        -0.0417
      6 C5          3.0498   -1.2780   -6.2844 C.ar      1 <0>         0.0979
      7 C6          1.8487   -1.5551   -6.9854 C.ar      1 <0>        -0.0561
      8 C7          1.9034   -2.2197   -8.2192 C.ar      1 <0>        -0.1500
      9 C8          0.6175   -1.1550   -6.4262 C.ar      1 <0>        -0.0659
     10 C9          0.6309   -0.5130   -5.2252 C.ar      1 <0>        -0.1373
     11 C10         1.8555   -0.2663   -4.5775 C.ar      1 <0>         0.1837
     12 N1          3.0058   -0.6405   -5.1121 N.ar      1 <0>        -0.4210
     13 C11         1.8566    0.4288   -3.2795 C.2       1 <0>         0.0823
     14 N2          2.9794    0.6637   -2.6694 N.2       1 <0>        -0.1443
     15 N3          2.9804    1.3251   -1.4343 N.pl3     1 <0>        -0.5375
     16 C12         4.1739    1.5748   -0.7857 C.2       1 <0>         0.5833
     17 N4          5.3640    1.3389   -1.2797 N.2       1 <0>        -0.4771
     18 C13         6.3067    1.6971   -0.3737 C.ar      1 <0>        -0.0683
     19 C14         7.7113    1.6690   -0.3498 C.ar      1 <0>         0.4396
     20 N5          8.3354    2.1123    0.7365 N.ar      1 <0>        -0.5425
     21 C15         7.6594    2.5703    1.7744 C.ar      1 <0>         0.3307
     22 N6          6.3437    2.6153    1.7962 N.ar      1 <0>        -0.5150
     23 C16         5.6341    2.1935    0.7551 C.ar      1 <0>         0.2937
     24 N7          4.2917    2.1087    0.4688 N.pl3     1 <0>        -0.4923
     25 C17         3.1904    2.5100    1.3476 C.3       1 <0>         0.3001
     26 H1          2.4764    3.1272    0.8022 H         1 <0>         0.1389
     27 C18         2.4900    1.2648    1.9350 C.3       1 <0>         0.0702
     28 H2          1.4242    1.4522    2.0659 H         1 <0>         0.1059
     29 C19         3.1757    1.0593    3.3043 C.3       1 <0>         0.0437
     30 H3          3.6751    0.0911    3.3398 H         1 <0>         0.0860
     31 C20         4.2093    2.2047    3.3821 C.3       1 <0>         0.0282
     32 H4          5.1858    1.8607    3.0414 H         1 <0>         0.1303
     33 O2          3.6980    3.2240    2.4958 O.3       1 <0>        -0.3110
     34 C21         4.3036    2.7408    4.8120 C.3       1 <0>         0.0849
     35 O3          5.2943    3.7689    4.8709 O.3       1 <0>        -0.5495
     36 O4          2.2229    1.1718    4.3633 O.3       1 <0>        -0.5526
     37 O5          2.6977    0.1294    1.0925 O.3       1 <0>        -0.5435
     38 N8          8.4289    1.1900   -1.4334 N.pl3     1 <0>        -0.7522
     39 H5          4.9405   -4.2706   -9.6978 H         1 <0>         0.0585
     40 H6          4.3601   -4.1073  -11.3726 H         1 <0>         0.1034
     41 H7          5.0682   -2.7052  -10.5353 H         1 <0>         0.0585
     42 H8          5.2436   -2.6253   -8.4659 H         1 <0>         0.1392
     43 H9          5.2016   -1.4752   -6.3219 H         1 <0>         0.1444
     44 H10         0.9941   -2.4349   -8.7608 H         1 <0>         0.1395
     45 H11        -0.3129   -1.3532   -6.9375 H         1 <0>         0.1455
     46 H12        -0.2957   -0.1944   -4.7711 H         1 <0>         0.1436
     47 H13         0.9241    0.7433   -2.8346 H         1 <0>         0.1331
     48 H14         2.1429    1.6076   -1.0347 H         1 <0>         0.3953
     49 H15         8.2060    2.9206    2.6374 H         1 <0>         0.2060
     50 H16         4.5805    1.9303    5.4863 H         1 <0>         0.0571
     51 H17         3.3383    3.1488    5.1115 H         1 <0>         0.0595
     52 H18         5.4082    4.1554    5.7500 H         1 <0>         0.3793
     53 H19         2.6089    1.1107    5.2478 H         1 <0>         0.3854
     54 H20         2.2792   -0.6809    1.4142 H         1 <0>         0.3932
     55 H21         9.0253    1.9122   -1.7838 H         1 <0>         0.3638
     56 H22         7.9620    0.8691   -2.2208 H         1 <0>         0.3827
@<TRIPOS>BOND
     1    1    2 1
     2    1   39 1
     3    1   40 1
     4    1   41 1
     5    2    3 1
     6    3    8 ar
     7    3    4 ar
     8    4    5 ar
     9    4   42 1
    10    5    6 ar
    11    5   43 1
    12    6   12 ar
    13    6    7 ar
    14    7    8 ar
    15    7    9 ar
    16    8   44 1
    17    9   10 ar
    18    9   45 1
    19   10   11 ar
    20   10   46 1
    21   11   12 ar
    22   11   13 1
    23   13   14 2
    24   13   47 1
    25   14   15 1
    26   15   16 1
    27   15   48 1
    28   16   24 1
    29   16   17 2
    30   17   18 1
    31   18   23 ar
    32   18   19 ar
    33   19   20 ar
    34   19   38 1
    35   20   21 ar
    36   21   22 ar
    37   21   49 1
    38   22   23 ar
    39   23   24 1
    40   24   25 1
    41   25   26 1
    42   25   33 1
    43   25   27 1
    44   27   28 1
    45   27   29 1
    46   27   37 1
    47   29   30 1
    48   29   31 1
    49   29   36 1
    50   31   32 1
    51   31   33 1
    52   31   34 1
    53   34   35 1
    54   34   50 1
    55   34   51 1
    56   35   52 1
    57   36   53 1
    58   37   54 1
    59   38   55 1
    60   38   56 1
@<TRIPOS>MOLECULE
ZINC35395211
   63    66     0     0     0
SMALL
USER_CHARGES

@<TRIPOS>ATOM
      1 C1          5.1106   -0.8945   -0.9216 C.3       1 <0>        -0.1293
      2 C2          3.7835   -1.5891   -0.7558 C.2       1 <0>         0.0409
      3 C3          3.1730   -2.1882   -1.8111 C.2       1 <0>        -0.2668
      4 C4          1.9317   -2.8322   -1.6304 C.2       1 <0>         0.5121
      5 O1          1.3955   -3.3657   -2.5849 O.2       1 <0>        -0.4641
      6 O2          1.3261   -2.8726   -0.4332 O.3       1 <0>        -0.2712
      7 C5          1.8788   -2.2971    0.6560 C.ar      1 <0>         0.1863
      8 C6          3.1199   -1.6417    0.5485 C.ar      1 <0>        -0.1877
      9 C7          3.6986   -1.0483    1.6759 C.ar      1 <0>        -0.0157
     10 C8          3.0583   -1.1117    2.8798 C.ar      1 <0>        -0.2030
     11 C9          1.8322   -1.7636    2.9935 C.ar      1 <0>         0.1844
     12 C10         1.2397   -2.3475    1.8853 C.ar      1 <0>        -0.1717
     13 O3          1.2082   -1.8185    4.1978 O.3       1 <0>        -0.3110
     14 C11         1.8660   -1.1882    5.2987 C.3       1 <0>         0.2138
     15 H1          2.0765   -0.1482    5.0492 H         1 <0>         0.1195
     16 C12         0.9625   -1.2442    6.5333 C.3       1 <0>         0.0669
     17 H2          1.4465   -0.7281    7.3625 H         1 <0>         0.1025
     18 C13         0.7202   -2.7083    6.9130 C.3       1 <0>         0.1251
     19 H3          0.1920   -3.2122    6.1036 H         1 <0>         0.0858
     20 C14         2.0699   -3.3932    7.1487 C.3       1 <0>         0.0751
     21 H4          1.9094   -4.4494    7.3654 H         1 <0>         0.1017
     22 C15         2.9306   -3.2542    5.8903 C.3       1 <0>         0.0734
     23 H5          2.4427   -3.7620    5.0583 H         1 <0>         0.0894
     24 O4          3.0914   -1.8694    5.5751 O.3       1 <0>        -0.3543
     25 C16         4.3028   -3.8838    6.1385 C.3       1 <0>         0.0825
     26 O5          5.0642   -3.8583    4.9295 O.3       1 <0>        -0.5584
     27 O6          2.7330   -2.7745    8.2530 O.3       1 <0>        -0.3695
     28 C17         3.5157   -3.6749    9.0396 C.3       1 <0>         0.2050
     29 H6          4.1495   -4.2730    8.3847 H         1 <0>         0.1029
     30 C18         4.3919   -2.8770   10.0087 C.3       1 <0>         0.0663
     31 H7          5.0221   -2.1877    9.4467 H         1 <0>         0.0707
     32 C19         3.4933   -2.0858   10.9641 C.3       1 <0>         0.0852
     33 H8          2.9020   -1.3668   10.3971 H         1 <0>         0.0842
     34 C20         2.5588   -3.0578   11.6910 C.3       1 <0>         0.0921
     35 H9          1.8780   -2.4978   12.3322 H         1 <0>         0.0682
     36 C21         1.7534   -3.8488   10.6569 C.3       1 <0>         0.1038
     37 H10         1.1333   -3.1643   10.0781 H         1 <0>         0.1045
     38 O7          2.6496   -4.5363    9.7812 O.3       1 <0>        -0.3559
     39 C22         0.8607   -4.8641   11.3734 C.3       1 <0>         0.0905
     40 O8          0.0402   -5.5362   10.4158 O.3       1 <0>        -0.5626
     41 O9          3.3319   -3.9585   12.4867 O.3       1 <0>        -0.5341
     42 O10         4.3017   -1.3937   11.9178 O.3       1 <0>        -0.5541
     43 O11         5.2147   -3.7737   10.7576 O.3       1 <0>        -0.5173
     44 O12        -0.0636   -2.7692    8.1063 O.3       1 <0>        -0.5404
     45 O13        -0.2855   -0.6126    6.2408 O.3       1 <0>        -0.5479
     46 H11         5.9175   -1.6067   -0.7493 H         1 <0>         0.0920
     47 H12         5.1880   -0.4954   -1.9329 H         1 <0>         0.0848
     48 H13         5.1861   -0.0789   -0.2024 H         1 <0>         0.0807
     49 H14         3.6371   -2.1711   -2.7862 H         1 <0>         0.1629
     50 H15         4.6490   -0.5420    1.5939 H         1 <0>         0.1429
     51 H16         3.5053   -0.6540    3.7499 H         1 <0>         0.1457
     52 H17         0.2890   -2.8507    1.9814 H         1 <0>         0.1516
     53 H18         4.8270   -3.3200    6.9101 H         1 <0>         0.0588
     54 H19         4.1752   -4.9156    6.4659 H         1 <0>         0.0653
     55 H20         5.9477   -4.2424    5.0130 H         1 <0>         0.3844
     56 H21         1.4834   -5.5922   11.8933 H         1 <0>         0.0623
     57 H22         0.2280   -4.3465   12.0944 H         1 <0>         0.0577
     58 H23        -0.5529   -6.1961   10.8004 H         1 <0>         0.3790
     59 H24         3.8713   -3.5237   13.1612 H         1 <0>         0.3822
     60 H25         4.9224   -0.7650   11.5247 H         1 <0>         0.3837
     61 H26         5.8073   -4.3108   10.2140 H         1 <0>         0.3735
     62 H27        -0.9709   -2.4531    7.9975 H         1 <0>         0.3881
     63 H28        -0.2060    0.3174    5.9880 H         1 <0>         0.3866
@<TRIPOS>BOND
     1    1    2 1
     2    1   46 1
     3    1   47 1
     4    1   48 1
     5    2    8 1
     6    2    3 2
     7    3    4 1
     8    3   49 1
     9    4    5 2
    10    4    6 1
    11    6    7 1
    12    7   12 ar
    13    7    8 ar
    14    8    9 ar
    15    9   10 ar
    16    9   50 1
    17   10   11 ar
    18   10   51 1
    19   11   12 ar
    20   11   13 1
    21   12   52 1
    22   13   14 1
    23   14   15 1
    24   14   24 1
    25   14   16 1
    26   16   17 1
    27   16   18 1
    28   16   45 1
    29   18   19 1
    30   18   20 1
    31   18   44 1
    32   20   21 1
    33   20   22 1
    34   20   27 1
    35   22   23 1
    36   22   24 1
    37   22   25 1
    38   25   26 1
    39   25   53 1
    40   25   54 1
    41   26   55 1
    42   27   28 1
    43   28   29 1
    44   28   38 1
    45   28   30 1
    46   30   31 1
    47   30   32 1
    48   30   43 1
    49   32   33 1
    50   32   34 1
    51   32   42 1
    52   34   35 1
    53   34   36 1
    54   34   41 1
    55   36   37 1
    56   36   38 1
    57   36   39 1
    58   39   40 1
    59   39   56 1
    60   39   57 1
    61   40   58 1
    62   41   59 1
    63   42   60 1
    64   43   61 1
    65   44   62 1
    66   45   63 1
@<TRIPOS>MOLECULE
ZINC39937344
   62    64     0     0     0
SMALL
USER_CHARGES

@<TRIPOS>ATOM
      1 C1         -2.4884   -2.1177   -0.4751 C.3       1 <0>        -0.1532
      2 C2         -1.4480   -3.0679    0.1212 C.3       1 <0>         0.0701
      3 H1         -1.9527   -3.8493    0.6893 H         1 <0>         0.0791
      4 C3         -0.6311   -3.7034   -1.0068 C.3       1 <0>         0.0837
      5 H2         -1.2881   -4.2971   -1.6424 H         1 <0>         0.0838
      6 C4          0.4470   -4.6064   -0.3997 C.3       1 <0>         0.1237
      7 H3          1.0680   -5.0183   -1.1952 H         1 <0>         0.0816
      8 C5          1.3157   -3.7774    0.5513 C.3       1 <0>         0.0648
      9 H4          1.8274   -2.9960   -0.0106 H         1 <0>         0.0851
     10 C6          0.4236   -3.1390    1.6191 C.3       1 <0>         0.2322
     11 H5         -0.0564   -3.9214    2.2069 H         1 <0>         0.0835
     12 O1         -0.5760   -2.3375    0.9863 O.3       1 <0>        -0.3948
     13 O2          1.2196   -2.3190    2.4770 O.3       1 <0>        -0.3410
     14 C7          0.5374   -1.8712    3.6501 C.3       1 <0>         0.0775
     15 H6         -0.5387   -1.9014    3.4796 H         1 <0>         0.0982
     16 C8          0.9641   -0.4371    3.9741 C.3       1 <0>         0.0965
     17 H7          0.4133   -0.0820    4.8451 H         1 <0>         0.0880
     18 O3          2.3654   -0.4098    4.2526 O.3       1 <0>        -0.3513
     19 C9          2.7528   -1.2051    5.3749 C.3       1 <0>         0.2313
     20 H8          3.8277   -1.1141    5.5312 H         1 <0>         0.1247
     21 C10         2.3980   -2.6701    5.1073 C.3       1 <0>         0.1103
     22 H9          2.9560   -3.0277    4.2419 H         1 <0>         0.1335
     23 C11         0.8946   -2.7819    4.8289 C.3       1 <0>         0.0824
     24 H10         0.3364   -2.4710    5.7120 H         1 <0>         0.0831
     25 O4          0.5656   -4.1343    4.5050 O.3       1 <0>        -0.5447
     26 N1          2.7413   -3.4790    6.2795 N.am      1 <0>        -0.7270
     27 C12         3.9963   -3.9459    6.4320 C.2       1 <0>         0.5144
     28 O5          4.8416   -3.6964    5.5988 O.2       1 <0>        -0.5336
     29 C13         4.3494   -4.7780    7.6378 C.3       1 <0>        -0.1754
     30 O6          2.0617   -0.7525    6.5409 O.3       1 <0>        -0.3195
     31 C14         2.3467    0.5019    6.9791 C.ar      1 <0>         0.1802
     32 C15         3.2683    1.2834    6.2975 C.ar      1 <0>        -0.1829
     33 C16         3.5560    2.5584    6.7446 C.ar      1 <0>        -0.0123
     34 C17         2.9263    3.0559    7.8706 C.ar      1 <0>        -0.0844
     35 C18         2.0078    2.2789    8.5520 C.ar      1 <0>        -0.0193
     36 C19         1.7124    1.0053    8.1056 C.ar      1 <0>        -0.1494
     37 N2          3.2363    4.4222    8.3475 N.pl3     1 <0>         0.0390
     38 O7          4.0396    5.1024    7.7527 O.2       1 <0>        -0.1618
     39 O8          2.6863    4.8582    9.3319 O.3       1 <0>        -0.1629
     40 C20         0.6638    0.4673    2.7771 C.3       1 <0>         0.0911
     41 O9          0.9470    1.8246    3.1227 O.3       1 <0>        -0.5675
     42 O10         2.2807   -4.6250    1.1777 O.3       1 <0>        -0.5562
     43 O11        -0.1732   -5.6719    0.3229 O.3       1 <0>        -0.5577
     44 O12        -0.0131   -2.6770   -1.7856 O.3       1 <0>        -0.5509
     45 H11        -1.9836   -1.3363   -1.0431 H         1 <0>         0.0679
     46 H12        -3.1533   -2.6748   -1.1351 H         1 <0>         0.0785
     47 H13        -3.0697   -1.6649    0.3282 H         1 <0>         0.0720
     48 H14         0.7658   -4.7670    5.2083 H         1 <0>         0.3827
     49 H15         2.0653   -3.6785    6.9459 H         1 <0>         0.4055
     50 H16         3.7309   -5.6753    7.6538 H         1 <0>         0.0920
     51 H17         5.4006   -5.0621    7.5881 H         1 <0>         0.0967
     52 H18         4.1722   -4.1983    8.5438 H         1 <0>         0.0910
     53 H19         3.7607    0.8951    5.4181 H         1 <0>         0.1569
     54 H20         4.2736    3.1670    6.2145 H         1 <0>         0.1564
     55 H21         1.5175    2.6696    9.4314 H         1 <0>         0.1599
     56 H22         0.9916    0.4004    8.6356 H         1 <0>         0.1533
     57 H23         1.2853    0.1702    1.9323 H         1 <0>         0.0688
     58 H24        -0.3876    0.3733    2.5054 H         1 <0>         0.0661
     59 H25         0.7792    2.4554    2.4092 H         1 <0>         0.3853
     60 H26         2.8664   -4.1652    1.7948 H         1 <0>         0.3908
     61 H27         0.4520   -6.2840    0.7347 H         1 <0>         0.3970
     62 H28        -0.6385   -2.0648   -2.1968 H         1 <0>         0.3872
@<TRIPOS>BOND
     1    1    2 1
     2    1   45 1
     3    1   46 1
     4    1   47 1
     5    2    3 1
     6    2   12 1
     7    2    4 1
     8    4    5 1
     9    4    6 1
    10    4   44 1
    11    6    7 1
    12    6    8 1
    13    6   43 1
    14    8    9 1
    15    8   10 1
    16    8   42 1
    17   10   11 1
    18   10   12 1
    19   10   13 1
    20   13   14 1
    21   14   15 1
    22   14   23 1
    23   14   16 1
    24   16   17 1
    25   16   18 1
    26   16   40 1
    27   18   19 1
    28   19   20 1
    29   19   21 1
    30   19   30 1
    31   21   22 1
    32   21   23 1
    33   21   26 1
    34   23   24 1
    35   23   25 1
    36   25   48 1
    37   26   27 am
    38   26   49 1
    39   27   28 2
    40   27   29 1
    41   29   50 1
    42   29   51 1
    43   29   52 1
    44   30   31 1
    45   31   36 ar
    46   31   32 ar
    47   32   33 ar
    48   32   53 1
    49   33   34 ar
    50   33   54 1
    51   34   35 ar
    52   34   37 1
    53   35   36 ar
    54   35   55 1
    55   36   56 1
    56   37   38 2
    57   37   39 1
    58   40   41 1
    59   40   57 1
    60   40   58 1
    61   41   59 1
    62   42   60 1
    63   43   61 1
    64   44   62 1
@<TRIPOS>MOLECULE
ZINC49601722
   59    61     0     0     0
SMALL
USER_CHARGES

@<TRIPOS>ATOM
      1 C1         -0.0169    1.3952    0.0097 C.ar      1 <0>        -0.0862
      2 C2          1.1671    2.0997    0.0022 C.ar      1 <0>        -0.1329
      3 C3          2.3804    1.4252   -0.0130 C.ar      1 <0>         0.0989
      4 C4          2.4077    0.0306   -0.0212 C.ar      1 <0>         0.0779
      5 C5          1.2264   -0.6835   -0.0138 C.ar      1 <0>        -0.1000
      6 C6          0.0021   -0.0041    0.0020 C.ar      1 <0>        -0.0761
      7 C7         -1.2592   -0.7582    0.0105 C.2       1 <0>         0.0070
      8 C8         -2.4393   -0.1007    0.0257 C.2       1 <0>        -0.1982
      9 C9         -3.6561   -0.8283    0.0339 C.2       1 <0>         0.5019
     10 O1         -3.6375   -2.0447    0.0272 O.2       1 <0>        -0.4853
     11 O2         -4.8347   -0.1717    0.0492 O.3       1 <0>        -0.3305
     12 C10        -6.0211   -0.9682    0.0567 C.3       1 <0>         0.0824
     13 H1         -5.8328   -1.9071   -0.4639 H         1 <0>         0.1106
     14 C11        -7.1510   -0.2103   -0.6472 C.3       1 <0>         0.1245
     15 H2         -7.3054    0.7512   -0.1576 H         1 <0>         0.0800
     16 C12        -8.4361   -1.0397   -0.5646 C.3       1 <0>         0.0492
     17 H3         -8.2973   -1.9806   -1.0971 H         1 <0>         0.0849
     18 C13        -8.7559   -1.3259    0.9050 C.3       1 <0>         0.0669
     19 H4         -8.9344   -0.3863    1.4278 H         1 <0>         0.0812
     20 O3         -7.6522   -2.0045    1.5078 O.3       1 <0>        -0.3679
     21 C14        -6.4333   -1.2585    1.5022 C.3       1 <0>         0.2451
     22 H5         -6.5811   -0.3184    2.0338 H         1 <0>         0.0648
     23 O4         -5.4070   -2.0149    2.1476 O.3       1 <0>        -0.3307
     24 C15        -5.6414   -2.2441    3.5385 C.3       1 <0>         0.0967
     25 H6         -6.7147   -2.2851    3.7242 H         1 <0>         0.0815
     26 C16        -5.0258   -1.1052    4.3539 C.3       1 <0>        -0.1407
     27 C17        -5.2768   -1.3506    5.8431 C.3       1 <0>        -0.1189
     28 C18        -4.6367   -2.6774    6.2563 C.3       1 <0>        -0.1202
     29 C19        -5.2522   -3.8164    5.4409 C.3       1 <0>        -0.1508
     30 C20        -5.0013   -3.5710    3.9517 C.3       1 <0>         0.1137
     31 H7         -3.9280   -3.5300    3.7660 H         1 <0>         0.0596
     32 O5         -5.5762   -4.6347    3.1901 O.3       1 <0>        -0.5524
     33 C21       -10.0054   -2.2045    0.9935 C.3       1 <0>         0.0831
     34 O6        -10.3713   -2.3754    2.3642 O.3       1 <0>        -0.5605
     35 O7         -9.5137   -0.3108   -1.1559 O.3       1 <0>        -0.5528
     36 O8         -6.8037    0.0012   -2.0172 O.3       1 <0>        -0.5459
     37 O9          3.5987   -0.6259   -0.0370 O.3       1 <0>        -0.4853
     38 O10         3.5442    2.1252   -0.0204 O.3       1 <0>        -0.4863
     39 H8         -0.9592    1.9225    0.0260 H         1 <0>         0.1391
     40 H9          1.1513    3.1796    0.0078 H         1 <0>         0.1401
     41 H10         1.2463   -1.7633   -0.0201 H         1 <0>         0.1416
     42 H11        -1.2427   -1.8381    0.0045 H         1 <0>         0.1426
     43 H12        -2.4557    0.9791    0.0317 H         1 <0>         0.1413
     44 H13        -3.9526   -1.0642    4.1682 H         1 <0>         0.0730
     45 H14        -5.4818   -0.1599    4.0595 H         1 <0>         0.0691
     46 H15        -4.8383   -0.5392    6.4240 H         1 <0>         0.0707
     47 H16        -6.3501   -1.3916    6.0288 H         1 <0>         0.0663
     48 H17        -3.5634   -2.6365    6.0706 H         1 <0>         0.0655
     49 H18        -4.8155   -2.8523    7.3172 H         1 <0>         0.0696
     50 H19        -4.7962   -4.7616    5.7352 H         1 <0>         0.0716
     51 H20        -6.3255   -3.8573    5.6266 H         1 <0>         0.0735
     52 H21        -5.2168   -5.5076    3.4000 H         1 <0>         0.3749
     53 H22       -10.8243   -1.7268    0.4557 H         1 <0>         0.0647
     54 H23        -9.7975   -3.1777    0.5489 H         1 <0>         0.0618
     55 H24       -11.1573   -2.9231    2.4962 H         1 <0>         0.3850
     56 H25       -10.3605   -0.7775   -1.1384 H         1 <0>         0.3879
     57 H26        -7.4758    0.4768   -2.5243 H         1 <0>         0.3924
     58 H27         3.9520   -0.8208    0.8417 H         1 <0>         0.3898
     59 H28         3.8897    2.3232    0.8608 H         1 <0>         0.3916
@<TRIPOS>BOND
     1    1    6 ar
     2    1    2 ar
     3    1   39 1
     4    2    3 ar
     5    2   40 1
     6    3    4 ar
     7    3   38 1
     8    4    5 ar
     9    4   37 1
    10    5    6 ar
    11    5   41 1
    12    6    7 1
    13    7    8 2
    14    7   42 1
    15    8    9 1
    16    8   43 1
    17    9   10 2
    18    9   11 1
    19   11   12 1
    20   12   13 1
    21   12   21 1
    22   12   14 1
    23   14   15 1
    24   14   16 1
    25   14   36 1
    26   16   17 1
    27   16   18 1
    28   16   35 1
    29   18   19 1
    30   18   20 1
    31   18   33 1
    32   20   21 1
    33   21   22 1
    34   21   23 1
    35   23   24 1
    36   24   25 1
    37   24   30 1
    38   24   26 1
    39   26   27 1
    40   26   44 1
    41   26   45 1
    42   27   28 1
    43   27   46 1
    44   27   47 1
    45   28   29 1
    46   28   48 1
    47   28   49 1
    48   29   30 1
    49   29   50 1
    50   29   51 1
    51   30   31 1
    52   30   32 1
    53   32   52 1
    54   33   34 1
    55   33   53 1
    56   33   54 1
    57   34   55 1
    58   35   56 1
    59   36   57 1
    60   37   58 1
    61   38   59 1
@<TRIPOS>MOLECULE
ZINC64164920
   61    64     0     0     0
SMALL
USER_CHARGES

@<TRIPOS>ATOM
      1 C1          0.1318   -0.2685    5.4246 C.3       1 <0>        -0.1522
      2 C2          0.6298    0.6524    4.3090 C.3       1 <0>        -0.0820
      3 C3          1.1559   -0.1797    3.1680 C.ar      1 <0>        -0.0704
      4 C4          2.4973   -0.5042    3.1100 C.ar      1 <0>        -0.1051
      5 C5          2.9809   -1.2672    2.0633 C.ar      1 <0>        -0.0773
      6 C6          2.1240   -1.7085    1.0714 C.ar      1 <0>        -0.1121
      7 C7          0.7818   -1.3880    1.1235 C.ar      1 <0>        -0.0731
      8 C8          0.2916   -0.6260    2.1766 C.ar      1 <0>         0.1251
      9 N1         -1.0664   -0.3044    2.2352 N.pl3     1 <0>        -0.5120
     10 C9         -2.1350   -1.1520    2.7904 C.3       1 <0>         0.2724
     11 H1         -1.9338   -1.3728    3.8387 H         1 <0>         0.1763
     12 N2         -3.3834   -0.3601    2.6642 N.3       1 <0>        -0.4210
     13 N3         -2.8808    1.0210    2.5596 N.4       1 <0>        -0.2950
     14 N4         -1.6420    0.8619    1.7903 N.3       1 <0>        -0.2177
     15 S1         -2.2694   -2.6921    1.8415 S.3       1 <0>        -0.0533
     16 C10        -2.6587   -2.1381    0.1586 C.3       1 <0>        -0.1576
     17 C11        -2.8620   -3.3377   -0.7307 C.2       1 <0>         0.5357
     18 O1         -2.7548   -4.4561   -0.2742 O.2       1 <0>        -0.4983
     19 N5         -3.1629   -3.1675   -2.0334 N.am      1 <0>        -0.7261
     20 C12        -3.3605   -4.3336   -2.8979 C.3       1 <0>         0.1238
     21 C13        -3.6889   -3.8663   -4.3174 C.3       1 <0>        -0.1016
     22 C14        -3.8921   -5.0658   -5.2067 C.2       1 <0>         0.0557
     23 C15        -5.0676   -5.6533   -5.5210 C.ar      1 <0>        -0.1713
     24 C16        -6.4563   -5.3608   -5.1421 C.ar      1 <0>         0.0201
     25 C17        -7.4467   -6.1418   -5.6244 C.ar      1 <0>        -0.2079
     26 C18        -7.1804   -7.2279   -6.4798 C.ar      1 <0>         0.2973
     27 C19        -5.9230   -7.5568   -6.8715 C.ar      1 <0>        -0.2720
     28 C20        -4.8121   -6.8004   -6.4221 C.ar      1 <0>         0.3498
     29 N6         -3.5250   -6.9163   -6.6553 N.pl3     1 <0>        -0.5937
     30 C21        -2.8223   -5.8504   -5.9323 C.3       1 <0>         0.0687
     31 O2         -8.2196   -7.9742   -6.9290 O.3       1 <0>        -0.2802
     32 C22        -9.5267   -7.5953   -6.4931 C.3       1 <0>         0.0077
     33 H2          0.9309   -0.9494    5.7176 H         1 <0>         0.0727
     34 H3         -0.1680    0.3311    6.2841 H         1 <0>         0.0708
     35 H4         -0.7225   -0.8434    5.0670 H         1 <0>         0.0451
     36 H5         -0.1933    1.2738    3.9562 H         1 <0>         0.0428
     37 H6          1.4273    1.2891    4.6923 H         1 <0>         0.0912
     38 H7          3.1691   -0.1613    3.8829 H         1 <0>         0.1392
     39 H8          4.0303   -1.5190    2.0199 H         1 <0>         0.1399
     40 H9          2.5050   -2.3040    0.2550 H         1 <0>         0.1385
     41 H10         0.1133   -1.7326    0.3484 H         1 <0>         0.1260
     42 H11        -3.8957   -0.6223    1.8354 H         1 <0>         0.3936
     43 H12        -3.5386    1.6040    2.0642 H         1 <0>         0.4587
     44 H13        -1.0244    1.6471    1.9324 H         1 <0>         0.3762
     45 H14        -3.5693   -1.5393    0.1747 H         1 <0>         0.1126
     46 H15        -1.8350   -1.5365   -0.2255 H         1 <0>         0.1276
     47 H16        -3.2486   -2.2729   -2.3985 H         1 <0>         0.4081
     48 H17        -2.4499   -4.9324   -2.9141 H         1 <0>         0.0843
     49 H18        -4.1843   -4.9352   -2.5138 H         1 <0>         0.0844
     50 H19        -4.5995   -3.2675   -4.3012 H         1 <0>         0.1141
     51 H20        -2.8651   -3.2647   -4.7015 H         1 <0>         0.1185
     52 H21        -6.6820   -4.5328   -4.4865 H         1 <0>         0.1659
     53 H22        -8.4683   -5.9282   -5.3468 H         1 <0>         0.1664
     54 H23        -5.7685   -8.3994   -7.5292 H         1 <0>         0.1685
     55 H24        -2.2925   -5.2045   -6.6324 H         1 <0>         0.1692
     56 H25        -2.1231   -6.2829   -5.2166 H         1 <0>         0.1674
     57 H26       -10.2640   -8.2726   -6.9241 H         1 <0>         0.1261
     58 H27        -9.5765   -7.6484   -5.4055 H         1 <0>         0.0765
     59 H28        -9.7365   -6.5759   -6.8171 H         1 <0>         0.0766
     60 H29        -3.1090   -7.5909   -7.2146 H         1 <0>         0.4571
     61 H30        -2.6833    1.3995    3.4738 H         1 <0>         0.4300
@<TRIPOS>BOND
     1    1    2 1
     2    1   33 1
     3    1   34 1
     4    1   35 1
     5    2    3 1
     6    2   36 1
     7    2   37 1
     8    3    8 ar
     9    3    4 ar
    10    4    5 ar
    11    4   38 1
    12    5    6 ar
    13    5   39 1
    14    6    7 ar
    15    6   40 1
    16    7    8 ar
    17    7   41 1
    18    8    9 1
    19    9   14 1
    20    9   10 1
    21   10   11 1
    22   10   12 1
    23   10   15 1
    24   12   13 1
    25   12   42 1
    26   13   14 1
    27   13   43 1
    28   13   61 1
    29   14   44 1
    30   15   16 1
    31   16   17 1
    32   16   45 1
    33   16   46 1
    34   17   18 2
    35   17   19 am
    36   19   20 1
    37   19   47 1
    38   20   21 1
    39   20   48 1
    40   20   49 1
    41   21   22 1
    42   21   50 1
    43   21   51 1
    44   22   30 1
    45   22   23 2
    46   23   28 ar
    47   23   24 ar
    48   24   25 ar
    49   24   52 1
    50   25   26 ar
    51   25   53 1
    52   26   27 ar
    53   26   31 1
    54   27   28 ar
    55   27   54 1
    56   28   29 2
    57   29   30 1
    58   29   60 1
    59   30   55 1
    60   30   56 1
    61   31   32 1
    62   32   57 1
    63   32   58 1
    64   32   59 1
@<TRIPOS>MOLECULE
ZINC12051043
   57    59     0     0     0
SMALL
USER_CHARGES
N-[3-[4-[[(1R)-1-(2-chlorophenyl)ethyl]amino]-1-piperidyl]phenyl]ethanesulfonamide
@<TRIPOS>ATOM
      1 C1          3.4497   11.1774    8.1364 C.3       1 <0>        -0.1495
      2 C2          3.1575    9.7879    7.5664 C.3       1 <0>        -0.6226
      3 S1          4.4748    8.6426    8.0600 S.o2      1 <0>         2.6020
      4 O1          4.4307    8.4214    9.4630 O.2       1 <0>        -0.9433
      5 O2          5.6939    8.9938    7.4199 O.2       1 <0>        -0.9422
      6 N1          4.0487    7.1896    7.3895 N.pl3     1 <0>        -1.0601
      7 C3          4.0107    7.0457    6.0007 C.ar      1 <0>         0.1684
      8 C4          5.0474    7.5449    5.2209 C.ar      1 <0>        -0.1677
      9 C5          5.0103    7.4034    3.8474 C.ar      1 <0>        -0.0664
     10 C6          3.9437    6.7651    3.2440 C.ar      1 <0>        -0.1748
     11 C7          2.9043    6.2633    4.0177 C.ar      1 <0>         0.1143
     12 C8          2.9356    6.4089    5.3976 C.ar      1 <0>        -0.1512
     13 N2          1.8265    5.6182    3.4070 N.pl3     1 <0>        -0.4882
     14 C9          1.9932    5.5810    1.9485 C.3       1 <0>         0.0512
     15 C10         0.7323    5.0004    1.3043 C.3       1 <0>        -0.1390
     16 C11         0.4924    3.5883    1.8456 C.3       1 <0>         0.0237
     17 C12         0.3711    3.6472    3.3708 C.3       1 <0>        -0.1386
     18 C13         1.6419    4.2684    3.9551 C.3       1 <0>         0.0575
     19 C14        -0.7288    1.5792    1.2668 C.3       1 <0>         0.0782
     20 H1         -0.2017    1.2182    2.1499 H         1 <0>         0.1473
     21 C15        -0.0127    1.0858    0.0080 C.3       1 <0>        -0.1768
     22 C16        -2.1426    1.0576    1.2775 C.ar      1 <0>        -0.1311
     23 C17        -3.1723    1.8411    0.7909 C.ar      1 <0>        -0.1208
     24 C18        -4.4685    1.3611    0.7966 C.ar      1 <0>        -0.0942
     25 C19        -4.7374    0.1010    1.2979 C.ar      1 <0>        -0.0811
     26 C20        -3.7096   -0.6812    1.7895 C.ar      1 <0>        -0.0920
     27 C21        -2.4111   -0.2031    1.7796 C.ar      1 <0>        -0.0157
     28 Cl1        -1.1196   -1.1848    2.3975 Cl        1 <0>        -0.0435
     29 H2          2.6581   11.8656    7.8398 H         1 <0>         0.0864
     30 H3          3.4943   11.1220    9.2241 H         1 <0>         0.0753
     31 H4          4.4048   11.5346    7.7513 H         1 <0>         0.0757
     32 H5          3.1129    9.8434    6.4788 H         1 <0>         0.1322
     33 H6          2.2023    9.4308    7.9515 H         1 <0>         0.1336
     34 H7          3.8255    6.4385    7.9612 H         1 <0>         0.4279
     35 H8          5.8825    8.0443    5.6894 H         1 <0>         0.1640
     36 H9          5.8167    7.7928    3.2437 H         1 <0>         0.1361
     37 H10         3.9176    6.6564    2.1698 H         1 <0>         0.1304
     38 H11         2.1269    6.0237    6.0010 H         1 <0>         0.1323
     39 H12         2.8503    4.9563    1.6968 H         1 <0>         0.0607
     40 H13         2.1588    6.5919    1.5761 H         1 <0>         0.1072
     41 H14         0.8625    4.9583    0.2229 H         1 <0>         0.0993
     42 H15        -0.1229    5.6322    1.5441 H         1 <0>         0.0994
     43 H16         1.3292    2.9459    1.5712 H         1 <0>         0.1402
     44 H17        -0.4899    4.2571    3.6441 H         1 <0>         0.0996
     45 H18         0.2434    2.6390    3.7649 H         1 <0>         0.0960
     46 H19         2.5006    3.6499    3.6939 H         1 <0>         0.0584
     47 H20         1.5522    4.3260    5.0398 H         1 <0>         0.1039
     48 H21         0.0021   -0.0041    0.0020 H         1 <0>         0.1086
     49 H22         1.0099    1.4631    0.0003 H         1 <0>         0.0872
     50 H23        -0.5399    1.4469   -0.8751 H         1 <0>         0.0869
     51 H24        -2.9634    2.8272    0.4029 H         1 <0>         0.1274
     52 H25        -5.2721    1.9723    0.4132 H         1 <0>         0.1439
     53 H26        -5.7509   -0.2721    1.3056 H         1 <0>         0.1473
     54 H27        -3.9198   -1.6652    2.1817 H         1 <0>         0.1490
     55 N3         -0.7569    3.0541    1.2713 N.4       1 <0>        -0.5161
     56 H28        -0.8592    3.3938    0.3078 H         1 <0>         0.4311
     57 H29        -1.5531    3.3759    1.8340 H         1 <0>         0.4323
@<TRIPOS>BOND
     1    1    2 1
     2    1   29 1
     3    1   30 1
     4    1   31 1
     5    2    3 1
     6    2   32 1
     7    2   33 1
     8    3    4 2
     9    3    5 2
    10    3    6 1
    11    6    7 1
    12    6   34 1
    13    7   12 ar
    14    7    8 ar
    15    8    9 ar
    16    8   35 1
    17    9   10 ar
    18    9   36 1
    19   10   11 ar
    20   10   37 1
    21   11   12 ar
    22   11   13 1
    23   12   38 1
    24   13   18 1
    25   13   14 1
    26   14   15 1
    27   14   39 1
    28   14   40 1
    29   15   16 1
    30   15   41 1
    31   15   42 1
    32   16   17 1
    33   16   43 1
    34   16   55 1
    35   17   18 1
    36   17   44 1
    37   17   45 1
    38   18   46 1
    39   18   47 1
    40   19   20 1
    41   19   21 1
    42   19   22 1
    43   19   55 1
    44   21   48 1
    45   21   49 1
    46   21   50 1
    47   22   27 ar
    48   22   23 ar
    49   23   24 ar
    50   23   51 1
    51   24   25 ar
    52   24   52 1
    53   25   26 ar
    54   25   53 1
    55   26   27 ar
    56   26   54 1
    57   27   28 1
    58   55   56 1
    59   55   57 1
@<TRIPOS>MOLECULE
ZINC21262954
   66    68     0     0     0
SMALL
USER_CHARGES
1-[(4-ethoxyphenyl)methyl]-1-(2-furylmethyl)-3-(2,2,6,6-tetramethyl-4-piperidyl)thiourea
@<TRIPOS>ATOM
      1 C1          2.2076    5.6228    0.0102 C.3       1 <0>        -0.1565
      2 C2          2.4257    4.1084    0.0005 C.3       1 <0>         0.0526
      3 O1          1.1601    3.4449    0.0090 O.3       1 <0>        -0.3146
      4 C3          1.1759    2.0860    0.0020 C.ar      1 <0>         0.1450
      5 C4         -0.0167    1.3772    0.0096 C.ar      1 <0>        -0.1598
      6 C5          0.0021   -0.0041    0.0020 C.ar      1 <0>        -0.0461
      7 C6          1.2080   -0.6802   -0.0131 C.ar      1 <0>        -0.1592
      8 C7          2.3980    0.0239   -0.0207 C.ar      1 <0>        -0.0644
      9 C8          2.3846    1.4052   -0.0127 C.ar      1 <0>        -0.2169
     10 C9          1.2256   -2.1871   -0.0209 C.3       1 <0>         0.1531
     11 N1          1.2178   -2.6684   -1.4045 N.pl3     1 <0>        -0.5499
     12 C10         2.4825   -2.8943   -2.1086 C.3       1 <0>         0.1712
     13 C11         2.9363   -4.3136   -1.8834 C.2       1 <0>        -0.0494
     14 C12         2.6227   -5.3713   -2.6530 C.2       1 <0>        -0.1861
     15 C13         3.2570   -6.4973   -2.0798 C.2       1 <0>        -0.2176
     16 C14         3.9203   -6.0604   -0.9942 C.2       1 <0>        -0.0118
     17 O2          3.7272   -4.7359   -0.8835 O.3       1 <0>        -0.1649
     18 C15         0.0471   -2.9034   -2.0297 C.2       1 <0>         0.5698
     19 S1         -1.4308   -2.6395   -1.2069 S.2       1 <0>        -0.6253
     20 N2          0.0400   -3.3463   -3.3026 N.pl3     1 <0>        -0.7035
     21 C16        -1.2354   -3.6023   -3.9837 C.3       1 <0>         0.1410
     22 C17        -1.6965   -5.0254   -3.6703 C.3       1 <0>        -0.1409
     23 C18        -3.0123   -5.3265   -4.3836 C.3       1 <0>         0.0720
     24 N3         -2.9838   -4.9828   -5.7900 N.4       1 <0>        -0.5139
     25 C19        -2.3400   -3.7629   -6.2303 C.3       1 <0>         0.0599
     26 C20        -1.0334   -3.4786   -5.4937 C.3       1 <0>        -0.1421
     27 C21        -3.2795   -2.5592   -6.0902 C.3       1 <0>        -0.1818
     28 C22        -2.0052   -3.9090   -7.7315 C.3       1 <0>        -0.1802
     29 C23        -4.1616   -4.6128   -3.6620 C.3       1 <0>        -0.1734
     30 C24        -3.2699   -6.8451   -4.2632 C.3       1 <0>        -0.1768
     31 H1          3.1818    6.1336    0.0037 H         1 <0>         0.0820
     32 H2          1.6505    5.9072    0.9151 H         1 <0>         0.0693
     33 H3          1.6337    5.9163   -0.8811 H         1 <0>         0.0675
     34 H4          2.9828    3.8240   -0.9044 H         1 <0>         0.0621
     35 H5          2.9996    3.8149    0.8918 H         1 <0>         0.0647
     36 H6         -0.9589    1.9049    0.0169 H         1 <0>         0.1311
     37 H7         -0.9260   -0.5563    0.0083 H         1 <0>         0.1551
     38 H8          3.3387   -0.5065   -0.0325 H         1 <0>         0.1205
     39 H9          3.3144    1.9547   -0.0186 H         1 <0>         0.1284
     40 H10         2.1330   -2.5458    0.4870 H         1 <0>         0.0954
     41 H11         0.3369   -2.5669    0.5045 H         1 <0>         0.1245
     42 H12         2.3385   -2.7219   -3.1854 H         1 <0>         0.1082
     43 H13         3.2449   -2.2003   -1.7249 H         1 <0>         0.1189
     44 H14         2.0044   -5.3621   -3.5385 H         1 <0>         0.1393
     45 H15         3.2164   -7.5134   -2.4436 H         1 <0>         0.1528
     46 H16         4.5121   -6.6703   -0.3277 H         1 <0>         0.2098
     47 H17         0.9896   -3.5160   -3.8313 H         1 <0>         0.4158
     48 H18        -1.9589   -2.8595   -3.6167 H         1 <0>         0.1348
     49 H19        -0.9330   -5.7412   -4.0090 H         1 <0>         0.0845
     50 H20        -1.8439   -5.1326   -2.5855 H         1 <0>         0.1239
     51 H21        -2.4617   -5.7727   -6.3500 H         1 <0>         0.4415
     52 H22        -0.6997   -2.4590   -5.7367 H         1 <0>         0.1135
     53 H23        -0.2722   -4.2016   -5.8223 H         1 <0>         0.0916
     54 H24        -2.7635   -1.6497   -6.4316 H         1 <0>         0.1035
     55 H25        -3.5704   -2.4419   -5.0359 H         1 <0>         0.0859
     56 H26        -4.1785   -2.7226   -6.7026 H         1 <0>         0.0854
     57 H27        -1.5142   -2.9917   -8.0886 H         1 <0>         0.1068
     58 H28        -2.9326   -4.0735   -8.2997 H         1 <0>         0.0868
     59 H29        -1.3304   -4.7658   -7.8750 H         1 <0>         0.0817
     60 H30        -5.1091   -4.8304   -4.1767 H         1 <0>         0.0785
     61 H31        -3.9813   -3.5277   -3.6690 H         1 <0>         0.0852
     62 H32        -4.2189   -4.9683   -2.6226 H         1 <0>         0.1072
     63 H33        -4.2138   -7.0981   -4.7683 H         1 <0>         0.0832
     64 H34        -3.3367   -7.1226   -3.2009 H         1 <0>         0.1059
     65 H35        -2.4426   -7.3958   -4.7347 H         1 <0>         0.0784
     66 H36        -4.0135   -4.8869   -6.1650 H         1 <0>         0.4471
@<TRIPOS>BOND
     1    1    2 1
     2    1   31 1
     3    1   32 1
     4    1   33 1
     5    2    3 1
     6    2   34 1
     7    2   35 1
     8    3    4 1
     9    4    9 ar
    10    4    5 ar
    11    5    6 ar
    12    5   36 1
    13    6    7 ar
    14    6   37 1
    15    7    8 ar
    16    7   10 1
    17    8    9 ar
    18    8   38 1
    19    9   39 1
    20   10   11 1
    21   10   40 1
    22   10   41 1
    23   11   12 1
    24   11   18 1
    25   12   13 1
    26   12   42 1
    27   12   43 1
    28   13   17 1
    29   13   14 2
    30   14   15 1
    31   14   44 1
    32   15   16 2
    33   15   45 1
    34   16   17 1
    35   16   46 1
    36   18   19 2
    37   18   20 1
    38   20   21 1
    39   20   47 1
    40   21   26 1
    41   21   22 1
    42   21   48 1
    43   22   23 1
    44   22   49 1
    45   22   50 1
    46   23   24 1
    47   23   29 1
    48   23   30 1
    49   24   25 1
    50   24   51 1
    51   24   66 1
    52   25   26 1
    53   25   27 1
    54   25   28 1
    55   26   52 1
    56   26   53 1
    57   27   54 1
    58   27   55 1
    59   27   56 1
    60   28   57 1
    61   28   58 1
    62   28   59 1
    63   29   60 1
    64   29   61 1
    65   29   62 1
    66   30   63 1
    67   30   64 1
    68   30   65 1
@<TRIPOS>MOLECULE
ZINC39411910
   66    68     0     0     0
SMALL
USER_CHARGES

@<TRIPOS>ATOM
      1 C1          1.8212   -3.9198    0.2208 C.3       1 <0>        -0.1789
      2 C2          0.9309   -2.6555    0.2115 C.3       1 <0>         0.0596
      3 C3         -0.5170   -3.1172    0.3395 C.3       1 <0>        -0.1518
      4 C4         -1.4727   -1.9527    0.0791 C.3       1 <0>         0.1092
      5 C5         -1.2178   -1.4344   -1.3364 C.3       1 <0>        -0.1464
      6 C6          0.2247   -0.9594   -1.4764 C.3       1 <0>         0.0611
      7 N1          1.1985   -1.9359   -1.0212 N.4       1 <0>        -0.4912
      8 C7          0.4011    0.3811   -0.7555 C.3       1 <0>        -0.1758
      9 C8          0.4827   -0.7030   -2.9794 C.3       1 <0>        -0.1798
     10 N2         -2.8571   -2.4313    0.1774 N.pl3     1 <0>        -0.5260
     11 C9         -3.3741   -3.3850   -0.8072 C.3       1 <0>         0.1416
     12 C10        -3.1774   -4.7895   -0.2975 C.ar      1 <0>        -0.1618
     13 C11        -2.0791   -5.5241   -0.7047 C.ar      1 <0>        -0.0748
     14 C12        -1.8968   -6.8119   -0.2392 C.ar      1 <0>        -0.1606
     15 C13        -2.8166   -7.3679    0.6379 C.ar      1 <0>         0.1470
     16 C14        -3.9176   -6.6286    1.0454 C.ar      1 <0>        -0.2084
     17 C15        -4.0926   -5.3393    0.5811 C.ar      1 <0>        -0.0514
     18 O1         -2.6397   -8.6347    1.0969 O.3       1 <0>        -0.3153
     19 C16        -3.6265   -9.1422    1.9973 C.3       1 <0>         0.0239
     20 C17        -3.6525   -1.9933    1.1733 C.2       1 <0>         0.5391
     21 S1         -5.2348   -2.6239    1.3454 S.2       1 <0>        -0.4792
     22 N3         -3.2022   -1.0588    2.0339 N.pl3     1 <0>        -0.6928
     23 C18        -3.1900    0.2895    1.6592 C.ar      1 <0>         0.1984
     24 C19        -3.7460    0.6804    0.4483 C.ar      1 <0>        -0.1202
     25 C20        -3.7324    2.0118    0.0813 C.ar      1 <0>        -0.1316
     26 C21        -3.1658    2.9560    0.9180 C.ar      1 <0>        -0.0891
     27 C22        -2.6106    2.5710    2.1244 C.ar      1 <0>        -0.0629
     28 C23        -2.6264    1.2410    2.5007 C.ar      1 <0>        -0.0621
     29 Cl1        -1.9363    0.7590    4.0189 Cl        1 <0>        -0.0397
     30 C24        -4.3353    2.4363   -1.2330 C.3       1 <0>         0.5083
     31 F1         -5.6878    2.7426   -1.0483 F         1 <0>        -0.1649
     32 F2         -3.6625    3.5656   -1.7116 F         1 <0>        -0.1701
     33 F3         -4.2153    1.3946   -2.1591 F         1 <0>        -0.1779
     34 C25         1.3198   -1.8234    1.4380 C.3       1 <0>        -0.1760
     35 H1          2.8698   -3.6262    0.1734 H         1 <0>         0.0866
     36 H2          1.6426   -4.4832    1.1367 H         1 <0>         0.1080
     37 H3          1.5786   -4.5414   -0.6412 H         1 <0>         0.0834
     38 H4         -0.7113   -3.9135   -0.3829 H         1 <0>         0.1119
     39 H5         -0.6877   -3.5069    1.3460 H         1 <0>         0.1146
     40 H6         -1.3183   -1.1623    0.8082 H         1 <0>         0.1156
     41 H7         -1.4096   -2.2347   -2.0550 H         1 <0>         0.1029
     42 H8         -1.8970   -0.6044   -1.5455 H         1 <0>         0.1187
     43 H9          2.1047   -1.4666   -0.9288 H         1 <0>         0.4291
     44 H10         0.1622    0.2597    0.3011 H         1 <0>         0.0793
     45 H11         1.4332    0.7161   -0.8585 H         1 <0>         0.0875
     46 H12        -0.2668    1.1213   -1.1962 H         1 <0>         0.1065
     47 H13        -0.2073    0.0592   -3.3416 H         1 <0>         0.1092
     48 H14         1.5081   -0.3607   -3.1189 H         1 <0>         0.0871
     49 H15         0.3290   -1.6268   -3.5372 H         1 <0>         0.0843
     50 H16        -4.4366   -3.2020   -0.9673 H         1 <0>         0.1243
     51 H17        -2.8384   -3.2618   -1.7485 H         1 <0>         0.0975
     52 H18        -1.3633   -5.0908   -1.3876 H         1 <0>         0.1203
     53 H19        -1.0391   -7.3855   -0.5582 H         1 <0>         0.1317
     54 H20        -4.6351   -7.0592    1.7282 H         1 <0>         0.1327
     55 H21        -4.9471   -4.7618    0.9014 H         1 <0>         0.1625
     56 H22        -3.6664   -8.5118    2.8856 H         1 <0>         0.0585
     57 H23        -4.6002   -9.1415    1.5073 H         1 <0>         0.0609
     58 H24        -3.3657  -10.1604    2.2859 H         1 <0>         0.1063
     59 H25        -2.8867   -1.3208    2.9129 H         1 <0>         0.4306
     60 H26        -4.1884   -0.0561   -0.2061 H         1 <0>         0.1429
     61 H27        -3.1566    3.9964    0.6283 H         1 <0>         0.1533
     62 H28        -2.1683    3.3107    2.7752 H         1 <0>         0.1567
     63 H29         2.3736   -1.5525    1.3739 H         1 <0>         0.0870
     64 H30         0.7132   -0.9183    1.4702 H         1 <0>         0.0794
     65 H31         1.1491   -2.4075    2.3423 H         1 <0>         0.1052
     66 H32         1.3365   -2.6228   -1.7693 H         1 <0>         0.4257
@<TRIPOS>BOND
     1    1    2 1
     2    1   35 1
     3    1   36 1
     4    1   37 1
     5    2    7 1
     6    2    3 1
     7    2   34 1
     8    3    4 1
     9    3   38 1
    10    3   39 1
    11    4    5 1
    12    4   10 1
    13    4   40 1
    14    5    6 1
    15    5   41 1
    16    5   42 1
    17    6    7 1
    18    6    8 1
    19    6    9 1
    20    7   43 1
    21    7   66 1
    22    8   44 1
    23    8   45 1
    24    8   46 1
    25    9   47 1
    26    9   48 1
    27    9   49 1
    28   10   11 1
    29   10   20 1
    30   11   12 1
    31   11   50 1
    32   11   51 1
    33   12   17 ar
    34   12   13 ar
    35   13   14 ar
    36   13   52 1
    37   14   15 ar
    38   14   53 1
    39   15   16 ar
    40   15   18 1
    41   16   17 ar
    42   16   54 1
    43   17   55 1
    44   18   19 1
    45   19   56 1
    46   19   57 1
    47   19   58 1
    48   20   21 2
    49   20   22 1
    50   22   23 1
    51   22   59 1
    52   23   28 ar
    53   23   24 ar
    54   24   25 ar
    55   24   60 1
    56   25   26 ar
    57   25   30 1
    58   26   27 ar
    59   26   61 1
    60   27   28 ar
    61   27   62 1
    62   28   29 1
    63   30   31 1
    64   30   32 1
    65   30   33 1
    66   34   63 1
    67   34   64 1
    68   34   65 1
@<TRIPOS>MOLECULE
ZINC38550636
   58    62     0     0     0
SMALL
USER_CHARGES

@<TRIPOS>ATOM
      1 C1          3.4279   -4.0584    1.9014 C.ar      1 <0>         0.0393
      2 C2          4.5677   -3.2734    1.7849 C.ar      1 <0>        -0.1637
      3 C3          4.5196   -2.1197    1.0289 C.ar      1 <0>         0.1468
      4 N1          3.4074   -1.7562    0.4185 N.ar      1 <0>        -0.5005
      5 C4          2.3003   -2.4772    0.5056 C.ar      1 <0>         0.4471
      6 C5          2.2773   -3.6521    1.2506 C.ar      1 <0>        -0.1888
      7 N2          1.1509   -2.0568   -0.1533 N.pl3     1 <0>        -0.7083
      8 C6         -0.0368   -2.9142   -0.1738 C.3       1 <0>         0.2473
      9 H1          0.2698   -3.9580   -0.2419 H         1 <0>         0.1254
     10 C7         -0.8898   -2.5625   -1.3654 C.ar      1 <0>        -0.0673
     11 C8         -0.9071   -1.2659   -1.8444 C.ar      1 <0>        -0.1267
     12 C9         -1.6895   -0.9433   -2.9374 C.ar      1 <0>        -0.0528
     13 C10        -2.4543   -1.9173   -3.5516 C.ar      1 <0>        -0.1673
     14 C11        -2.4363   -3.2141   -3.0732 C.ar      1 <0>        -0.0518
     15 C12        -1.6505   -3.5376   -1.9828 C.ar      1 <0>        -0.0947
     16 C13        -3.3080   -1.5654   -4.7426 C.3       1 <0>         0.5063
     17 F1         -2.5661   -1.7389   -5.9158 F         1 <0>        -0.1715
     18 F2         -4.4314   -2.3986   -4.7736 F         1 <0>        -0.1709
     19 F3         -3.7192   -0.2318   -4.6438 F         1 <0>        -0.1731
     20 C14        -0.8294   -2.7049    1.0907 C.2       1 <0>        -0.1938
     21 C15        -1.3766   -3.7988    1.7621 C.2       1 <0>        -0.1007
     22 C16        -2.0786   -3.5292    2.8953 C.2       1 <0>        -0.1681
     23 S1         -1.9877   -1.7650    3.0434 S.3       1 <0>         0.1952
     24 C17        -1.0082   -1.4501    1.5829 C.2       1 <0>         0.0786
     25 N3         -0.5479   -0.2326    1.0775 N.am      1 <0>        -0.6233
     26 C18        -0.7817    0.9094    1.7540 C.2       1 <0>         0.6015
     27 O1         -1.3093    0.8703    2.8503 O.2       1 <0>        -0.4685
     28 C19        -0.4005    2.1989    1.1694 C.2       1 <0>        -0.1089
     29 C20        -0.4905    3.4159    1.7824 C.2       1 <0>        -0.0853
     30 C21        -0.0201    4.3666    0.8631 C.2       1 <0>        -0.2190
     31 C22         0.3320    3.6970   -0.2565 C.2       1 <0>         0.0128
     32 O2          0.1060    2.3905   -0.0663 O.3       1 <0>        -0.1774
     33 C23        -2.7636   -4.5051    3.7964 C.3       1 <0>        -0.0443
     34 C24        -2.8736   -5.8483    3.0591 C.3       1 <0>        -0.1156
     35 C25        -1.5118   -6.1839    2.4444 C.3       1 <0>        -0.1210
     36 C26        -1.2160   -5.2378    1.2800 C.3       1 <0>        -0.0620
     37 H2          3.4411   -4.9680    2.4836 H         1 <0>         0.1768
     38 H3          5.4823   -3.5626    2.2811 H         1 <0>         0.1834
     39 H4          5.4035   -1.5061    0.9358 H         1 <0>         0.2088
     40 H5          1.3731   -4.2387    1.3199 H         1 <0>         0.1794
     41 H6          1.1351   -1.1956   -0.5996 H         1 <0>         0.4092
     42 H7         -0.3096   -0.5049   -1.3645 H         1 <0>         0.1131
     43 H8         -1.7036    0.0699   -3.3112 H         1 <0>         0.1449
     44 H9         -3.0340   -3.9750   -3.5528 H         1 <0>         0.1493
     45 H10        -1.6336   -4.5516   -1.6113 H         1 <0>         0.1450
     46 H11        -0.0599   -0.2087    0.2396 H         1 <0>         0.4042
     47 H12        -0.8537    3.6094    2.7810 H         1 <0>         0.1680
     48 H13         0.0475    5.4329    1.0208 H         1 <0>         0.1670
     49 H14         0.7333    4.1415   -1.1552 H         1 <0>         0.2197
     50 H15        -2.1815   -4.6336    4.7089 H         1 <0>         0.0879
     51 H16        -3.7601   -4.1394    4.0441 H         1 <0>         0.0859
     52 H17        -3.1594   -6.6297    3.7634 H         1 <0>         0.0790
     53 H18        -3.6221   -5.7723    2.2704 H         1 <0>         0.0709
     54 H19        -0.7364   -6.0774    3.2030 H         1 <0>         0.0677
     55 H20        -1.5220   -7.2117    2.0816 H         1 <0>         0.0745
     56 H21        -1.9149   -5.4305    0.4660 H         1 <0>         0.0821
     57 H22        -0.1950   -5.3947    0.9323 H         1 <0>         0.0674
     58 H23         3.4007   -0.9407   -0.1066 H         1 <0>         0.4407
@<TRIPOS>BOND
     1    1    6 ar
     2    1    2 ar
     3    1   37 1
     4    2    3 ar
     5    2   38 1
     6    3    4 ar
     7    3   39 1
     8    4    5 ar
     9    4   58 1
    10    5    6 ar
    11    5    7 1
    12    6   40 1
    13    7    8 1
    14    7   41 1
    15    8    9 1
    16    8   10 1
    17    8   20 1
    18   10   15 ar
    19   10   11 ar
    20   11   12 ar
    21   11   42 1
    22   12   13 ar
    23   12   43 1
    24   13   14 ar
    25   13   16 1
    26   14   15 ar
    27   14   44 1
    28   15   45 1
    29   16   17 1
    30   16   18 1
    31   16   19 1
    32   20   24 2
    33   20   21 1
    34   21   36 1
    35   21   22 2
    36   22   23 1
    37   22   33 1
    38   23   24 1
    39   24   25 1
    40   25   26 am
    41   25   46 1
    42   26   27 2
    43   26   28 1
    44   28   32 1
    45   28   29 2
    46   29   30 1
    47   29   47 1
    48   30   31 2
    49   30   48 1
    50   31   32 1
    51   31   49 1
    52   33   34 1
    53   33   50 1
    54   33   51 1
    55   34   35 1
    56   34   52 1
    57   34   53 1
    58   35   36 1
    59   35   54 1
    60   35   55 1
    61   36   56 1
    62   36   57 1
@<TRIPOS>MOLECULE
ZINC64353858
   59    61     0     0     0
SMALL
USER_CHARGES

@<TRIPOS>ATOM
      1 C1         -0.0187    1.5258    0.0104 C.3       1 <0>        -0.1609
      2 C2          0.0021   -0.0041    0.0020 C.3       1 <0>         0.1258
      3 H1          0.5123   -0.3556   -0.8948 H         1 <0>         0.1178
      4 C3          0.7309   -0.5033    1.2229 C.2       1 <0>         0.5205
      5 O1          0.1587   -1.2128    2.0229 O.2       1 <0>        -0.5243
      6 N1          2.0187   -0.1613    1.4257 N.am      1 <0>        -0.7259
      7 C4          2.7273   -0.6466    2.6126 C.3       1 <0>         0.1303
      8 C5          4.1627   -0.1170    2.6018 C.3       1 <0>        -0.0302
      9 H2          4.6449   -0.3937    1.6642 H         1 <0>         0.1314
     10 C6          4.1453    1.3841    2.7338 C.ar      1 <0>        -0.0991
     11 C7          3.5855    1.9732    3.8521 C.ar      1 <0>        -0.1111
     12 C8          3.5695    3.3500    3.9733 C.ar      1 <0>        -0.1011
     13 C9          4.1133    4.1387    2.9764 C.ar      1 <0>        -0.0873
     14 C10         4.6732    3.5509    1.8581 C.ar      1 <0>        -0.0953
     15 C11         4.6946    2.1725    1.7387 C.ar      1 <0>        -0.0262
     16 Cl1         5.4036    1.4331    0.3372 Cl        1 <0>        -0.0513
     17 C12         4.9271   -0.7140    3.7552 C.2       1 <0>         0.0732
     18 C13         6.0437   -1.4739    3.6843 C.ar      1 <0>        -0.1567
     19 C14         6.8492   -1.9548    2.5554 C.ar      1 <0>        -0.0131
     20 C15         7.9383   -2.7169    2.8043 C.ar      1 <0>        -0.1477
     21 C16         8.3160   -3.0587    4.1101 C.ar      1 <0>         0.0571
     22 C17         7.6264   -2.6548    5.1980 C.ar      1 <0>        -0.2093
     23 C18         6.4639   -1.8483    5.0535 C.ar      1 <0>         0.3309
     24 N2          5.6392   -1.3396    5.9365 N.pl3     1 <0>        -0.5811
     25 C19         4.6047   -0.5791    5.2266 C.3       1 <0>         0.0541
     26 N3         -1.3723   -0.5112    0.0124 N.am      1 <0>        -0.7165
     27 C20        -2.0508   -0.6427   -1.1446 C.2       1 <0>         0.5293
     28 O2         -1.5236   -0.3413   -2.1944 O.2       1 <0>        -0.5322
     29 C21        -3.4646   -1.1643   -1.1339 C.3       1 <0>        -0.0837
     30 C22        -4.0003   -1.2152   -2.5662 C.3       1 <0>        -0.1304
     31 C23        -3.4849   -2.5707   -0.5316 C.3       1 <0>        -0.1427
     32 C24        -4.3441   -0.2367   -0.2931 C.3       1 <0>        -0.1425
     33 H3          1.0039    1.9031    0.0027 H         1 <0>         0.0686
     34 H4         -0.5459    1.8868   -0.8726 H         1 <0>         0.0810
     35 H5         -0.5289    1.8773    0.9072 H         1 <0>         0.0660
     36 H6          2.4764    0.4061    0.7859 H         1 <0>         0.4072
     37 H7          2.2171   -0.2951    3.5094 H         1 <0>         0.0841
     38 H8          2.7421   -1.7365    2.6066 H         1 <0>         0.0873
     39 H9          3.1603    1.3577    4.6309 H         1 <0>         0.1309
     40 H10         3.1318    3.8099    4.8470 H         1 <0>         0.1396
     41 H11         4.1002    5.2145    3.0716 H         1 <0>         0.1434
     42 H12         5.0976    4.1671    1.0793 H         1 <0>         0.1456
     43 H13         6.5760   -1.7039    1.5411 H         1 <0>         0.1596
     44 H14         8.5325   -3.0718    1.9751 H         1 <0>         0.1596
     45 H15         9.1945   -3.6707    4.2517 H         1 <0>         0.1627
     46 H16         7.9591   -2.9459    6.1834 H         1 <0>         0.1625
     47 H17         4.6359    0.4693    5.5235 H         1 <0>         0.1753
     48 H18         3.6214   -1.0003    5.4360 H         1 <0>         0.1762
     49 H19        -1.7940   -0.7522    0.8520 H         1 <0>         0.4103
     50 H20        -3.3738   -1.8760   -3.1652 H         1 <0>         0.0631
     51 H21        -5.0229   -1.5925   -2.5585 H         1 <0>         0.0657
     52 H22        -3.9859   -0.2133   -2.9953 H         1 <0>         0.0636
     53 H23        -3.1032   -2.5344    0.4887 H         1 <0>         0.0603
     54 H24        -4.5074   -2.9479   -0.5239 H         1 <0>         0.0727
     55 H25        -2.8583   -3.2315   -1.1306 H         1 <0>         0.0614
     56 H26        -4.3297    0.7651   -0.7222 H         1 <0>         0.0626
     57 H27        -5.3667   -0.6140   -0.2854 H         1 <0>         0.0731
     58 H28        -3.9625   -0.2005    0.7272 H         1 <0>         0.0588
     59 H29         5.7043   -1.4452    6.8985 H         1 <0>         0.4572
@<TRIPOS>BOND
     1    1    2 1
     2    1   33 1
     3    1   34 1
     4    1   35 1
     5    2    3 1
     6    2    4 1
     7    2   26 1
     8    4    5 2
     9    4    6 am
    10    6    7 1
    11    6   36 1
    12    7    8 1
    13    7   37 1
    14    7   38 1
    15    8    9 1
    16    8   10 1
    17    8   17 1
    18   10   15 ar
    19   10   11 ar
    20   11   12 ar
    21   11   39 1
    22   12   13 ar
    23   12   40 1
    24   13   14 ar
    25   13   41 1
    26   14   15 ar
    27   14   42 1
    28   15   16 1
    29   17   25 1
    30   17   18 2
    31   18   23 ar
    32   18   19 ar
    33   19   20 ar
    34   19   43 1
    35   20   21 ar
    36   20   44 1
    37   21   22 ar
    38   21   45 1
    39   22   23 ar
    40   22   46 1
    41   23   24 2
    42   24   25 1
    43   24   59 1
    44   25   47 1
    45   25   48 1
    46   26   27 am
    47   26   49 1
    48   27   28 2
    49   27   29 1
    50   29   30 1
    51   29   31 1
    52   29   32 1
    53   30   50 1
    54   30   51 1
    55   30   52 1
    56   31   53 1
    57   31   54 1
    58   31   55 1
    59   32   56 1
    60   32   57 1
    61   32   58 1
@<TRIPOS>MOLECULE
ZINC15223561
   46    48     0     0     0
SMALL
USER_CHARGES
(2R,3S,4S,5R)-2-(6-amino-8-butylamino-purin-9-yl)-5-(hydroxymethyl)tetrahydrofuran-3,4-diol
@<TRIPOS>ATOM
      1 C1         -1.4333   -0.5336    0.0129 C.3       1 <0>        -0.1535
      2 C2          0.0021   -0.0041    0.0020 C.3       1 <0>        -0.1203
      3 C3         -0.0187    1.5258    0.0104 C.3       1 <0>        -0.1338
      4 C4          1.4167    2.0553   -0.0004 C.3       1 <0>         0.1436
      5 N1          1.3968    3.5202    0.0076 N.pl3     1 <0>        -0.7086
      6 C5          2.5827    4.2265    0.0001 C.2       1 <0>         0.5478
      7 N2          3.7782    3.6917   -0.0147 N.2       1 <0>        -0.5016
      8 C6          4.7120    4.6762   -0.0181 C.ar      1 <0>        -0.0379
      9 C7          6.1161    4.7017   -0.0313 C.ar      1 <0>         0.4193
     10 N3          6.7285    5.8812   -0.0309 N.ar      1 <0>        -0.5688
     11 C8          6.0407    7.0084   -0.0177 C.ar      1 <0>         0.3188
     12 N4          4.7243    7.0322   -0.0047 N.ar      1 <0>        -0.4964
     13 C9          4.0265    5.9015   -0.0044 C.ar      1 <0>         0.3244
     14 N5          2.6862    5.5903    0.0010 N.pl3     1 <0>        -0.4846
     15 C10         1.5744    6.5443    0.0095 C.3       1 <0>         0.3156
     16 H1          0.6494    6.0567   -0.2983 H         1 <0>         0.1165
     17 C11         1.4141    7.1830    1.4126 C.3       1 <0>         0.0744
     18 H2          0.7875    6.5624    2.0532 H         1 <0>         0.0932
     19 C12         0.7105    8.5216    1.0811 C.3       1 <0>         0.0473
     20 H3          1.1205    9.3287    1.6881 H         1 <0>         0.0902
     21 C13         1.0249    8.7545   -0.4094 C.3       1 <0>         0.0567
     22 H4          0.1004    8.7595   -0.9869 H         1 <0>         0.0908
     23 O1          1.8661    7.6725   -0.8429 O.3       1 <0>        -0.3330
     24 C14         1.7548   10.0877   -0.5850 C.3       1 <0>         0.0801
     25 O2          1.9387   10.3503   -1.9775 O.3       1 <0>        -0.5635
     26 O3         -0.6997    8.4088    1.2831 O.3       1 <0>        -0.5519
     27 O4          2.6884    7.4120    2.0173 O.3       1 <0>        -0.5208
     28 N6          6.8462    3.5241   -0.0448 N.pl3     1 <0>        -0.7466
     29 H5         -1.9435   -0.1821    0.9097 H         1 <0>         0.0543
     30 H6         -1.9605   -0.1726   -0.8702 H         1 <0>         0.0546
     31 H7         -1.4185   -1.6235    0.0069 H         1 <0>         0.0573
     32 H8          0.5123   -0.3556   -0.8948 H         1 <0>         0.0673
     33 H9          0.5293   -0.3651    0.8851 H         1 <0>         0.0668
     34 H10        -0.5459    1.8868   -0.8726 H         1 <0>         0.0699
     35 H11        -0.5289    1.8773    0.9072 H         1 <0>         0.0696
     36 H12         1.9439    1.6943    0.8826 H         1 <0>         0.0710
     37 H13         1.9269    1.7038   -0.8972 H         1 <0>         0.0715
     38 H14         0.5503    3.9937    0.0183 H         1 <0>         0.4067
     39 H15         6.5778    7.9454   -0.0179 H         1 <0>         0.1983
     40 H16         1.1631   10.8873   -0.1394 H         1 <0>         0.0589
     41 H17         2.7263   10.0375   -0.0933 H         1 <0>         0.0657
     42 H18         2.3961   11.1816   -2.1639 H         1 <0>         0.3840
     43 H19        -1.1907    9.2192    1.0900 H         1 <0>         0.3910
     44 H20         2.6403    7.8107    2.8970 H         1 <0>         0.3831
     45 H21         6.6289    2.9878    0.7708 H         1 <0>         0.3636
     46 H22         7.8157    3.5546   -0.0538 H         1 <0>         0.3690
@<TRIPOS>BOND
     1    1    2 1
     2    1   29 1
     3    1   30 1
     4    1   31 1
     5    2    3 1
     6    2   32 1
     7    2   33 1
     8    3    4 1
     9    3   34 1
    10    3   35 1
    11    4    5 1
    12    4   36 1
    13    4   37 1
    14    5    6 1
    15    5   38 1
    16    6   14 1
    17    6    7 2
    18    7    8 1
    19    8   13 ar
    20    8    9 ar
    21    9   10 ar
    22    9   28 1
    23   10   11 ar
    24   11   12 ar
    25   11   39 1
    26   12   13 ar
    27   13   14 1
    28   14   15 1
    29   15   16 1
    30   15   23 1
    31   15   17 1
    32   17   18 1
    33   17   19 1
    34   17   27 1
    35   19   20 1
    36   19   21 1
    37   19   26 1
    38   21   22 1
    39   21   23 1
    40   21   24 1
    41   24   25 1
    42   24   40 1
    43   24   41 1
    44   25   42 1
    45   26   43 1
    46   27   44 1
    47   28   45 1
    48   28   46 1
@<TRIPOS>MOLECULE
ZINC33611119
   47    47     0     0     0
SMALL
USER_CHARGES
N-[(1S,2S)-1,2-dihydroxy-2-(prop-2-enoylamino)ethyl]-3-[2-(2-oxoimidazolidin-1-yl)ethylamino]propanamide
@<TRIPOS>ATOM
      1 C1         -7.3469   -0.0188   -3.1742 C.2       1 <0>        -0.0842
      2 C2         -6.6679    0.1435   -2.0423 C.2       1 <0>        -0.2269
      3 C3         -5.4040    0.8962   -2.0442 C.2       1 <0>         0.5571
      4 O1         -4.9801    1.3701   -3.0809 O.2       1 <0>        -0.5439
      5 N1         -4.7159    1.0607   -0.8971 N.am      1 <0>        -0.7184
      6 C4         -3.4572    1.8103   -0.8990 C.3       1 <0>         0.3449
      7 H1         -3.0945    1.8953   -1.9340 H         1 <0>         0.1038
      8 C5         -2.4492    1.1169    0.0197 C.3       1 <0>         0.2958
      9 H2         -2.2466    0.0794   -0.2845 H         1 <0>         0.0992
     10 N2         -1.1906    1.8666    0.0178 N.am      1 <0>        -0.7446
     11 C6         -0.0144    1.2086    0.0087 C.2       1 <0>         0.5271
     12 O2          0.0021   -0.0041    0.0020 O.2       1 <0>        -0.5321
     13 C7          1.2803    1.9798    0.0005 C.3       1 <0>        -0.1746
     14 C8          2.4566    1.0015   -0.0160 C.3       1 <0>         0.0127
     15 N3          3.7186    1.7532   -0.0240 N.4       1 <0>        -0.5343
     16 C9          4.8726    0.8444   -0.0399 C.3       1 <0>        -0.0286
     17 C10         6.1657    1.6621   -0.0479 C.3       1 <0>         0.1317
     18 N4          7.3166    0.7558   -0.0637 N.am      1 <0>        -0.6384
     19 C11         8.0010    0.2268    1.1255 C.3       1 <0>         0.0864
     20 C12         9.1178   -0.6618    0.5440 C.3       1 <0>         0.0792
     21 N5          8.9498   -0.5318   -0.9111 N.am      1 <0>        -0.7416
     22 C13         7.9162    0.2819   -1.1638 C.2       1 <0>         0.7079
     23 O3          7.5547    0.5643   -2.2898 O.2       1 <0>        -0.5808
     24 O4         -2.9719    1.0669    1.3488 O.3       1 <0>        -0.5856
     25 O5         -3.6936    3.1392   -0.4298 O.3       1 <0>        -0.5926
     26 H3         -8.2920   -0.5816   -3.1728 H         1 <0>         0.1243
     27 H4         -6.9634    0.4098   -4.1119 H         1 <0>         0.1186
     28 H5         -7.0514   -0.2851   -1.1046 H         1 <0>         0.1336
     29 H6         -5.0994    0.6321    0.0406 H         1 <0>         0.4372
     30 H7         -1.2056    2.9665    0.0238 H         1 <0>         0.4230
     31 H8          1.3214    2.6178   -0.8947 H         1 <0>         0.1222
     32 H9          1.3386    2.6081    0.9015 H         1 <0>         0.1216
     33 H10         2.4155    0.3635    0.8792 H         1 <0>         0.1374
     34 H11         2.3984    0.3732   -0.9170 H         1 <0>         0.1383
     35 H12         3.7597    2.3912   -0.9192 H         1 <0>         0.4540
     36 H13         4.8484    0.2054    0.8551 H         1 <0>         0.1306
     37 H14         4.8312    0.2149   -0.9411 H         1 <0>         0.1339
     38 H15         6.1899    2.3011   -0.9429 H         1 <0>         0.1071
     39 H16         6.2071    2.2916    0.8532 H         1 <0>         0.1036
     40 H17         8.4011    1.0614    1.7199 H         1 <0>         0.0881
     41 H18         7.2872   -0.3477    1.7341 H         1 <0>         0.0831
     42 H19        10.0959   -0.2910    0.8842 H         1 <0>         0.0914
     43 H20         8.9786   -1.6975    0.8875 H         1 <0>         0.0900
     44 H21         9.6274   -1.0666   -1.5929 H         1 <0>         0.4686
     45 H22        -2.3842    0.6015    2.1538 H         1 <0>         0.4154
     46 H23        -2.8608    3.8545   -0.3611 H         1 <0>         0.4086
     47 H24         3.7769    2.3815    0.8770 H         1 <0>         0.4497
@<TRIPOS>BOND
     1    1    2 2
     2    1   26 1
     3    1   27 1
     4    2    3 1
     5    2   28 1
     6    3    4 2
     7    3    5 am
     8    5    6 1
     9    5   29 1
    10    6    7 1
    11    6    8 1
    12    6   25 1
    13    8    9 1
    14    8   10 1
    15    8   24 1
    16   10   11 am
    17   10   30 1
    18   11   12 2
    19   11   13 1
    20   13   14 1
    21   13   31 1
    22   13   32 1
    23   14   15 1
    24   14   33 1
    25   14   34 1
    26   15   16 1
    27   15   35 1
    28   15   47 1
    29   16   17 1
    30   16   36 1
    31   16   37 1
    32   17   18 1
    33   17   38 1
    34   17   39 1
    35   18   22 am
    36   18   19 1
    37   19   20 1
    38   19   40 1
    39   19   41 1
    40   20   21 1
    41   20   42 1
    42   20   43 1
    43   21   22 am
    44   21   44 1
    45   22   23 2
    46   24   45 1
    47   25   46 1
@<TRIPOS>MOLECULE
ZINC40784235
   50    52     0     0     0
SMALL
USER_CHARGES

@<TRIPOS>ATOM
      1 C1         -0.0184    1.5028    0.0103 C.3       1 <0>        -0.1243
      2 C2          0.0021   -0.0041    0.0020 C.ar      1 <0>        -0.0503
      3 C3          0.0057   -0.6862   -1.2017 C.ar      1 <0>        -0.1278
      4 C4          0.0249   -2.0656   -1.2163 C.ar      1 <0>        -0.0487
      5 C5          0.0405   -2.7730   -0.0132 C.ar      1 <0>        -0.1399
      6 C6          0.0368   -2.0787    1.1976 C.ar      1 <0>        -0.0798
      7 C7          0.0229   -0.6992    1.1981 C.ar      1 <0>        -0.1269
      8 C8          0.0606   -4.2513   -0.0214 C.2       1 <0>         0.5619
      9 O1          0.0635   -4.8532   -1.0774 O.2       1 <0>        -0.5406
     10 N1          0.0757   -4.9314    1.1421 N.am      1 <0>        -0.5086
     11 N2          0.0947   -6.3323    1.1344 N.pl3     1 <0>        -0.5096
     12 C9          0.1103   -7.0336    2.3341 C.ar      1 <0>         0.4068
     13 C10         0.1352   -8.4295    2.3389 C.ar      1 <0>         0.0052
     14 C11         0.1505   -9.0842    3.5715 C.ar      1 <0>         0.4041
     15 N3          0.1409   -8.3583    4.6872 N.ar      1 <0>        -0.5721
     16 C12         0.1173   -7.0419    4.6384 C.ar      1 <0>         0.3361
     17 N4          0.1074   -6.3850    3.4961 N.ar      1 <0>        -0.5762
     18 N5          0.1749  -10.4724    3.6329 N.pl3     1 <0>        -0.7231
     19 C13         0.1909  -11.1479    4.9328 C.3       1 <0>         0.1415
     20 C14         0.2166  -12.6628    4.7200 C.3       1 <0>        -0.1565
     21 C15         0.2332  -13.3683    6.0775 C.3       1 <0>         0.0963
     22 N6          0.2579  -14.8189    5.8737 N.pl3     1 <0>        -0.4081
     23 C16        -0.8300  -15.6415    5.7583 C.2       1 <0>         0.0257
     24 C17        -0.3574  -16.8902    5.5820 C.2       1 <0>         0.0040
     25 N7          0.9826  -16.8316    5.5896 N.pl3     1 <0>        -0.4763
     26 C18         1.3583  -15.5933    5.7588 C.cat     1 <0>         0.2885
     27 N8          0.1440   -9.1552    1.1363 N.pl3     1 <0>        -0.8761
     28 H1          1.0042    1.8801    0.0026 H         1 <0>         0.0784
     29 H2         -0.5455    1.8639   -0.8728 H         1 <0>         0.0725
     30 H3         -0.5286    1.8543    0.9071 H         1 <0>         0.0722
     31 H4         -0.0068   -0.1376   -2.1319 H         1 <0>         0.1339
     32 H5          0.0273   -2.5969   -2.1566 H         1 <0>         0.1384
     33 H6          0.0488   -2.6202    2.1320 H         1 <0>         0.1272
     34 H7          0.0241   -0.1607    2.1343 H         1 <0>         0.1329
     35 H8          0.0734   -4.4510    1.9848 H         1 <0>         0.4337
     36 H9          0.0970   -6.8127    0.2917 H         1 <0>         0.4381
     37 H10         0.1102   -6.4840    5.5631 H         1 <0>         0.2001
     38 H11         0.1815  -10.9940    2.8151 H         1 <0>         0.4043
     39 H12         1.0774  -10.8441    5.4893 H         1 <0>         0.0748
     40 H13        -0.7023  -10.8752    5.4950 H         1 <0>         0.0750
     41 H14        -0.6699  -12.9667    4.1634 H         1 <0>         0.0867
     42 H15         1.1097  -12.9356    4.1578 H         1 <0>         0.0846
     43 H16         1.1198  -13.0645    6.6341 H         1 <0>         0.1272
     44 H17        -0.6599  -13.0956    6.6397 H         1 <0>         0.1299
     45 H18        -1.8679  -15.3460    5.8008 H         1 <0>         0.2232
     46 H19        -0.9530  -17.7823    5.4565 H         1 <0>         0.2240
     47 H20         2.3799  -15.2459    5.8025 H         1 <0>         0.2600
     48 H21         0.1328   -8.6866    0.2870 H         1 <0>         0.3982
     49 H22         0.1614  -10.1248    1.1551 H         1 <0>         0.3938
     50 H23         1.5784  -17.5895    5.4824 H         1 <0>         0.4657
@<TRIPOS>BOND
     1    1    2 1
     2    1   28 1
     3    1   29 1
     4    1   30 1
     5    2    7 ar
     6    2    3 ar
     7    3    4 ar
     8    3   31 1
     9    4    5 ar
    10    4   32 1
    11    5    6 ar
    12    5    8 1
    13    6    7 ar
    14    6   33 1
    15    7   34 1
    16    8    9 2
    17    8   10 am
    18   10   11 1
    19   10   35 1
    20   11   12 1
    21   11   36 1
    22   12   17 ar
    23   12   13 ar
    24   13   14 ar
    25   13   27 1
    26   14   15 ar
    27   14   18 1
    28   15   16 ar
    29   16   17 ar
    30   16   37 1
    31   18   19 1
    32   18   38 1
    33   19   20 1
    34   19   39 1
    35   19   40 1
    36   20   21 1
    37   20   41 1
    38   20   42 1
    39   21   22 1
    40   21   43 1
    41   21   44 1
    42   22   26 1
    43   22   23 1
    44   23   24 2
    45   23   45 1
    46   24   25 1
    47   24   46 1
    48   25   26 2
    49   25   50 1
    50   26   47 1
    51   27   48 1
    52   27   49 1
@<TRIPOS>MOLECULE
ZINC57840500
   52    53     0     0     0
SMALL
USER_CHARGES

@<TRIPOS>ATOM
      1 C1         -0.0187    1.5258    0.0104 C.3       1 <0>        -0.1512
      2 C2          0.0021   -0.0041    0.0020 C.3       1 <0>        -0.1094
      3 C3          0.7421   -0.5109    1.2415 C.3       1 <0>        -0.1537
      4 C4         -1.4333   -0.5336    0.0129 C.3       1 <0>         0.1164
      5 N1         -1.4164   -1.9929   -0.1155 N.am      1 <0>        -0.6958
      6 C5         -2.5748   -2.6816   -0.1296 C.2       1 <0>         0.4969
      7 O1         -3.6313   -2.0933   -0.0360 O.2       1 <0>        -0.5291
      8 C6         -2.5575   -4.1827   -0.2617 C.3       1 <0>        -0.0334
      9 N2         -3.9356   -4.6912   -0.2512 N.4       1 <0>        -0.3728
     10 C7         -4.5481   -4.4127    1.0534 C.3       1 <0>        -0.0166
     11 C8         -6.0131   -4.8580    1.0373 C.3       1 <0>        -0.1391
     12 C9         -6.0829   -6.3503    0.7279 C.3       1 <0>         0.1108
     13 C10        -5.3620   -6.6561   -0.5814 C.3       1 <0>        -0.1414
     14 C11        -3.9233   -6.1379   -0.4996 C.3       1 <0>        -0.0050
     15 C12        -7.5203   -6.8101    0.6605 C.2       1 <0>         0.5363
     16 O2         -8.3776   -6.4298   -0.1078 O.2       1 <0>        -0.4284
     17 N3         -7.6484   -7.7342    1.6354 N.am      1 <0>        -0.5748
     18 C13        -6.4989   -7.9144    2.2980 C.2       1 <0>         0.7037
     19 O3         -6.3652   -8.6955    3.2195 O.2       1 <0>        -0.5079
     20 N4         -5.5074   -7.1326    1.8286 N.am      1 <0>        -0.7183
     21 C14        -8.8911   -8.4508    1.9326 C.3       1 <0>         0.0900
     22 C15        -8.9497   -9.7356    1.1039 C.3       1 <0>        -0.0269
     23 N5        -10.1958  -10.4541    1.4019 N.4       1 <0>        -0.6307
     24 H1          1.0039    1.9031    0.0027 H         1 <0>         0.0697
     25 H2         -0.5459    1.8868   -0.8726 H         1 <0>         0.0621
     26 H3         -0.5289    1.8773    0.9072 H         1 <0>         0.0621
     27 H4          0.5123   -0.3556   -0.8948 H         1 <0>         0.0813
     28 H5          0.7568   -1.6008    1.2356 H         1 <0>         0.0493
     29 H6          1.7647   -0.1336    1.2338 H         1 <0>         0.0682
     30 H7          0.2319   -0.1594    2.1383 H         1 <0>         0.0612
     31 H8         -1.9156   -0.2570    0.9504 H         1 <0>         0.0823
     32 H9         -1.9862   -0.1019   -0.8214 H         1 <0>         0.0825
     33 H10        -0.5715   -2.4635   -0.1904 H         1 <0>         0.4119
     34 H11        -2.0752   -4.4594   -1.1992 H         1 <0>         0.1660
     35 H12        -2.0046   -4.6145    0.5726 H         1 <0>         0.1618
     36 H13        -4.0115   -4.9575    1.8302 H         1 <0>         0.1285
     37 H14        -4.4958   -3.3434    1.2582 H         1 <0>         0.1648
     38 H15        -6.4622   -4.6670    2.0120 H         1 <0>         0.1273
     39 H16        -6.5541   -4.3020    0.2716 H         1 <0>         0.1222
     40 H17        -5.3518   -7.7332   -0.7482 H         1 <0>         0.1273
     41 H18        -5.8795   -6.1646   -1.4052 H         1 <0>         0.1221
     42 H19        -3.4104   -6.3406   -1.4398 H         1 <0>         0.1510
     43 H20        -3.4017   -6.6416    0.3142 H         1 <0>         0.1340
     44 H21        -4.5941   -7.0947    2.1531 H         1 <0>         0.4460
     45 H22        -8.9217   -8.7007    2.9931 H         1 <0>         0.1271
     46 H23        -9.7435   -7.8186    1.6836 H         1 <0>         0.1241
     47 H24        -8.9191   -9.4856    0.0434 H         1 <0>         0.1392
     48 H25        -8.0973  -10.3677    1.3529 H         1 <0>         0.1426
     49 H26       -10.9848   -9.8689    1.1714 H         1 <0>         0.4406
     50 H27       -10.2344  -11.3014    0.8554 H         1 <0>         0.4482
     51 H28       -10.2241  -10.6855    2.3836 H         1 <0>         0.4419
     52 H29        -4.4678   -4.2315   -0.9748 H         1 <0>         0.4350
@<TRIPOS>BOND
     1    1    2 1
     2    1   24 1
     3    1   25 1
     4    1   26 1
     5    2    3 1
     6    2    4 1
     7    2   27 1
     8    3   28 1
     9    3   29 1
    10    3   30 1
    11    4    5 1
    12    4   31 1
    13    4   32 1
    14    5    6 am
    15    5   33 1
    16    6    7 2
    17    6    8 1
    18    8    9 1
    19    8   34 1
    20    8   35 1
    21    9   14 1
    22    9   10 1
    23    9   52 1
    24   10   11 1
    25   10   36 1
    26   10   37 1
    27   11   12 1
    28   11   38 1
    29   11   39 1
    30   12   20 1
    31   12   13 1
    32   12   15 1
    33   13   14 1
    34   13   40 1
    35   13   41 1
    36   14   42 1
    37   14   43 1
    38   15   16 2
    39   15   17 am
    40   17   18 am
    41   17   21 1
    42   18   19 2
    43   18   20 am
    44   20   44 1
    45   21   22 1
    46   21   45 1
    47   21   46 1
    48   22   23 1
    49   22   47 1
    50   22   48 1
    51   23   49 1
    52   23   50 1
    53   23   51 1
@<TRIPOS>MOLECULE
ZINC66348628
   49    50     0     0     0
SMALL
USER_CHARGES

@<TRIPOS>ATOM
      1 C1         -0.0783    1.5048   -0.1584 C.3       1 <0>         0.0185
      2 N1         -0.0138    0.0431   -0.0269 N.3       1 <0>        -0.5166
      3 C2          0.6883   -0.3443    1.2039 C.3       1 <0>         0.0182
      4 C3         -1.3570   -0.5496   -0.0756 C.3       1 <0>         0.2462
      5 H1         -1.2904   -1.6179    0.1305 H         1 <0>         0.0900
      6 C4         -1.9592   -0.3349   -1.4656 C.3       1 <0>        -0.1273
      7 C5         -3.3041   -1.0586   -1.5562 C.3       1 <0>         0.0664
      8 O1         -3.8665   -0.8581   -2.8544 O.3       1 <0>        -0.3225
      9 C6         -5.0717   -1.4400   -3.1024 C.ar      1 <0>        -0.0010
     10 C7         -5.6988   -2.1815   -2.1153 C.ar      1 <0>        -0.1092
     11 C8         -6.9230   -2.7733   -2.3653 C.ar      1 <0>        -0.2181
     12 C9         -7.5272   -2.6261   -3.6069 C.ar      1 <0>         0.2297
     13 C10        -6.9021   -1.8842   -4.5996 C.ar      1 <0>        -0.2489
     14 C11        -5.6771   -1.2851   -4.3474 C.ar      1 <0>         0.2415
     15 N2         -5.0472   -0.5312   -5.3441 N.pl3     1 <0>        -0.8721
     16 N3         -8.7662   -3.2261   -3.8574 N.pl3     1 <0>        -0.8803
     17 O2         -2.1886    0.0738    0.9052 O.3       1 <0>        -0.3452
     18 C12        -3.0796   -0.7228    1.5564 C.ar      1 <0>         0.0031
     19 C13        -3.2261   -2.0480    1.1823 C.ar      1 <0>        -0.1219
     20 C14        -4.1306   -2.8586    1.8425 C.ar      1 <0>        -0.2166
     21 C15        -4.8949   -2.3465    2.8827 C.ar      1 <0>         0.2339
     22 C16        -4.7518   -1.0187    3.2610 C.ar      1 <0>        -0.2471
     23 C17        -3.8402   -0.2067    2.6032 C.ar      1 <0>         0.2430
     24 N4         -3.6890    1.1308    2.9862 N.pl3     1 <0>        -0.8712
     25 N5         -5.8097   -3.1690    3.5494 N.pl3     1 <0>        -0.8788
     26 H2          0.9324    1.9117   -0.1897 H         1 <0>         0.0698
     27 H3         -0.6030    1.7641   -1.0779 H         1 <0>         0.0726
     28 H4         -0.6121    1.9232    0.6949 H         1 <0>         0.0397
     29 H5          0.2115    0.1333    2.0599 H         1 <0>         0.0368
     30 H6          0.6451   -1.4271    1.3214 H         1 <0>         0.0681
     31 H7          1.7292   -0.0265    1.1438 H         1 <0>         0.0745
     32 H8         -2.1081    0.7313   -1.6363 H         1 <0>         0.0834
     33 H9         -1.2810   -0.7325   -2.2207 H         1 <0>         0.0944
     34 H10        -3.1552   -2.1248   -1.3854 H         1 <0>         0.0569
     35 H11        -3.9822   -0.6610   -0.8011 H         1 <0>         0.0660
     36 H12        -5.2309   -2.2978   -1.1489 H         1 <0>         0.1268
     37 H13        -7.4099   -3.3514   -1.5938 H         1 <0>         0.1170
     38 H14        -7.3714   -1.7696   -5.5656 H         1 <0>         0.1230
     39 H15        -4.1883   -0.1161   -5.1683 H         1 <0>         0.4034
     40 H16        -5.4694   -0.4238   -6.2107 H         1 <0>         0.3964
     41 H17        -9.2029   -3.7449   -3.1639 H         1 <0>         0.3971
     42 H18        -9.1883   -3.1233   -4.7247 H         1 <0>         0.3959
     43 H19        -2.6332   -2.4486    0.3734 H         1 <0>         0.1276
     44 H20        -4.2433   -3.8917    1.5486 H         1 <0>         0.1194
     45 H21        -5.3462   -0.6198    4.0697 H         1 <0>         0.1232
     46 H22        -3.0542    1.6993    2.5227 H         1 <0>         0.4023
     47 H23        -4.2190    1.4894    3.7152 H         1 <0>         0.3970
     48 H24        -5.9100   -4.0969    3.2849 H         1 <0>         0.3981
     49 H25        -6.3436   -2.8114    4.2760 H         1 <0>         0.3966
@<TRIPOS>BOND
     1    1    2 1
     2    1   26 1
     3    1   27 1
     4    1   28 1
     5    2    3 1
     6    2    4 1
     7    3   29 1
     8    3   30 1
     9    3   31 1
    10    4    5 1
    11    4    6 1
    12    4   17 1
    13    6    7 1
    14    6   32 1
    15    6   33 1
    16    7    8 1
    17    7   34 1
    18    7   35 1
    19    8    9 1
    20    9   14 ar
    21    9   10 ar
    22   10   11 ar
    23   10   36 1
    24   11   12 ar
    25   11   37 1
    26   12   13 ar
    27   12   16 1
    28   13   14 ar
    29   13   38 1
    30   14   15 1
    31   15   39 1
    32   15   40 1
    33   16   41 1
    34   16   42 1
    35   17   18 1
    36   18   23 ar
    37   18   19 ar
    38   19   20 ar
    39   19   43 1
    40   20   21 ar
    41   20   44 1
    42   21   22 ar
    43   21   25 1
    44   22   23 ar
    45   22   45 1
    46   23   24 1
    47   24   46 1
    48   24   47 1
    49   25   48 1
    50   25   49 1
@<TRIPOS>MOLECULE
ZINC12547638
   52    55     0     0     0
SMALL
USER_CHARGES
2-[[2-(1-ethyl-5-sulfamoyl-benzimidazol-2-yl)sulfanylacetyl]amino]-5,6-dihydro-4H-cyclopenta[d]thiophene-3-carboxamide
@<TRIPOS>ATOM
      1 C1         -1.8255    7.3410   -1.3774 C.3       1 <0>        -0.1734
      2 C2         -2.1365    6.9260    0.0620 C.3       1 <0>         0.0997
      3 N1         -3.0443    5.7761    0.0533 N.pl3     1 <0>        -0.4697
      4 C3         -4.4289    5.8222    0.0544 C.ar      1 <0>         0.1053
      5 C4         -5.3563    6.8530    0.0641 C.ar      1 <0>        -0.1209
      6 C5         -6.7052    6.5633    0.0692 C.ar      1 <0>        -0.0164
      7 C6         -7.1409    5.2465    0.0648 C.ar      1 <0>        -0.6803
      8 C7         -6.2342    4.2104    0.0547 C.ar      1 <0>         0.0535
      9 C8         -4.8646    4.4869    0.0498 C.ar      1 <0>         0.0342
     10 N2         -3.7544    3.7036    0.0404 N.2       1 <0>        -0.4855
     11 C9         -2.6831    4.4585    0.0390 C.2       1 <0>         0.2473
     12 S1         -1.0248    3.8631    0.0279 S.3       1 <0>         0.0949
     13 C10        -1.3314    2.0792    0.0197 C.3       1 <0>        -0.1469
     14 C11        -0.0162    1.3436    0.0094 C.2       1 <0>         0.5316
     15 O1          1.0257    1.9642    0.0028 O.2       1 <0>        -0.4841
     16 N3          0.0021   -0.0041    0.0020 N.am      1 <0>        -0.6111
     17 C12         1.2122   -0.6810   -0.0132 C.2       1 <0>         0.0631
     18 C13         1.4336   -2.0474   -0.0170 C.2       1 <0>        -0.2078
     19 C14         2.8213   -2.5086   -0.0382 C.2       1 <0>        -0.0945
     20 C15         3.7473   -1.5330   -0.0421 C.2       1 <0>        -0.2298
     21 S2          2.8127   -0.0227   -0.0243 S.3       1 <0>         0.2690
     22 C16         5.1473   -2.0842   -0.0613 C.3       1 <0>        -0.0325
     23 C17         4.9807   -3.5540   -0.5059 C.3       1 <0>        -0.1165
     24 C18         3.5396   -3.8586   -0.0506 C.3       1 <0>        -0.0617
     25 C19         0.3172   -2.9979   -0.0043 C.2       1 <0>         0.5819
     26 O2         -0.1585   -3.3919   -1.0531 O.2       1 <0>        -0.5318
     27 N4         -0.1821   -3.4354    1.1686 N.am      1 <0>        -0.8469
     28 S3         -8.8679    4.8969    0.0715 S.o2      1 <0>         2.7065
     29 O3         -9.0163    3.5930    0.6165 O.2       1 <0>        -0.9614
     30 O4         -9.5103    6.0342    0.6312 O.2       1 <0>        -0.9602
     31 N5         -9.3556    4.8078   -1.5086 N.pl3     1 <0>        -1.2497
     32 H1         -2.7509    7.6126   -1.8853 H         1 <0>         0.0648
     33 H2         -1.1500    8.1965   -1.3710 H         1 <0>         0.0850
     34 H3         -1.3539    6.5097   -1.9014 H         1 <0>         0.0689
     35 H4         -2.6081    7.7573    0.5860 H         1 <0>         0.0999
     36 H5         -1.2111    6.6544    0.5699 H         1 <0>         0.1011
     37 H6         -5.0234    7.8804    0.0673 H         1 <0>         0.1356
     38 H7         -7.4265    7.3670    0.0772 H         1 <0>         0.1526
     39 H8         -6.5804    3.1874    0.0510 H         1 <0>         0.1526
     40 H9         -1.9035    1.8130   -0.8691 H         1 <0>         0.1386
     41 H10        -1.8951    1.8033    0.9108 H         1 <0>         0.1381
     42 H11        -0.8313   -0.5005    0.0073 H         1 <0>         0.4241
     43 H12         5.7612   -1.5377   -0.7772 H         1 <0>         0.0806
     44 H13         5.5886   -2.0358    0.9342 H         1 <0>         0.0863
     45 H14         5.0760   -3.6476   -1.5877 H         1 <0>         0.0779
     46 H15         5.6957   -4.1994    0.0044 H         1 <0>         0.0853
     47 H16         3.0569   -4.5362   -0.7548 H         1 <0>         0.0746
     48 H17         3.5440   -4.2942    0.9485 H         1 <0>         0.0811
     49 H18         0.1970   -3.1214    2.0044 H         1 <0>         0.4038
     50 H19        -0.9207   -4.0642    1.1769 H         1 <0>         0.4044
     51 H20        -8.7130    4.9421   -2.2228 H         1 <0>         0.4171
     52 H21       -10.2837    4.6212   -1.7200 H         1 <0>         0.4219
@<TRIPOS>BOND
     1    1    2 1
     2    1   32 1
     3    1   33 1
     4    1   34 1
     5    2    3 1
     6    2   35 1
     7    2   36 1
     8    3   11 1
     9    3    4 1
    10    4    9 ar
    11    4    5 ar
    12    5    6 ar
    13    5   37 1
    14    6    7 ar
    15    6   38 1
    16    7    8 ar
    17    7   28 1
    18    8    9 ar
    19    8   39 1
    20    9   10 1
    21   10   11 2
    22   11   12 1
    23   12   13 1
    24   13   14 1
    25   13   40 1
    26   13   41 1
    27   14   15 2
    28   14   16 am
    29   16   17 1
    30   16   42 1
    31   17   21 1
    32   17   18 2
    33   18   19 1
    34   18   25 1
    35   19   24 1
    36   19   20 2
    37   20   21 1
    38   20   22 1
    39   22   23 1
    40   22   43 1
    41   22   44 1
    42   23   24 1
    43   23   45 1
    44   23   46 1
    45   24   47 1
    46   24   48 1
    47   25   26 2
    48   25   27 am
    49   27   49 1
    50   27   50 1
    51   28   29 2
    52   28   30 2
    53   28   31 1
    54   31   51 1
    55   31   52 1
@<TRIPOS>MOLECULE
ZINC21325841
   54    56     0     0     0
SMALL
USER_CHARGES
2-[[4-amino-5-[(N'E)-N'-[(4-diethylamino-2-hydroxy-phenyl)methylene]hydrazino]-1,2,4-triazol-3-yl]sulfanyl]-N-thiazol-2-yl-acetamide
@<TRIPOS>ATOM
      1 C1          4.8116    6.1542    1.4325 C.3       1 <0>        -0.1747
      2 C2          4.8067    5.6520   -0.0127 C.3       1 <0>         0.1139
      3 N1          4.8308    4.1872   -0.0208 N.pl3     1 <0>        -0.6203
      4 C3          6.1114    3.4758   -0.0364 C.3       1 <0>         0.1141
      5 C4          6.5439    3.2359   -1.4843 C.3       1 <0>        -0.1746
      6 C5          3.6341    3.4696   -0.0136 C.ar      1 <0>         0.2736
      7 C6          2.4191    4.1478    0.0012 C.ar      1 <0>        -0.2439
      8 C7          1.2339    3.4459    0.0088 C.ar      1 <0>        -0.0032
      9 C8          1.2501    2.0486    0.0011 C.ar      1 <0>        -0.1580
     10 C9          2.4753    1.3664   -0.0084 C.ar      1 <0>         0.2426
     11 C10         3.6597    2.0807   -0.0209 C.ar      1 <0>        -0.3068
     12 O1          2.4988    0.0083   -0.0103 O.3       1 <0>        -0.4668
     13 C11        -0.0155    1.2947    0.0092 C.2       1 <0>         0.1038
     14 N2          0.0021   -0.0041    0.0020 N.2       1 <0>        -0.1786
     15 N3         -1.2016   -0.7210    0.0097 N.pl3     1 <0>        -0.5692
     16 C12        -1.1827   -2.1079    0.0020 C.2       1 <0>         0.4944
     17 N4         -0.1118   -2.8641   -0.0180 N.2       1 <0>        -0.3096
     18 N5         -0.5267   -4.2023   -0.0168 N.2       1 <0>        -0.3079
     19 C13        -1.8381   -4.2200   -0.0039 C.2       1 <0>         0.1690
     20 N6         -2.2779   -2.9267    0.0081 N.pl3     1 <0>        -0.2651
     21 N7         -3.5825   -2.5223    0.0241 N.3       1 <0>        -0.7787
     22 S1         -2.8543   -5.6595   -0.0017 S.3       1 <0>         0.0749
     23 C14        -1.6697   -7.0330   -0.0218 C.3       1 <0>        -0.1422
     24 C15        -2.4175   -8.3414   -0.0217 C.2       1 <0>         0.5344
     25 O2         -3.6302   -8.3467   -0.0093 O.2       1 <0>        -0.4564
     26 N8         -1.7386   -9.5056   -0.0354 N.am      1 <0>        -0.6288
     27 C16        -2.4284  -10.7124   -0.0352 C.2       1 <0>         0.3095
     28 N9         -3.7302  -10.9227   -0.0173 N.2       1 <0>        -0.5177
     29 C17        -4.2250  -12.1450   -0.0251 C.2       1 <0>         0.0578
     30 C18        -3.3628  -13.1908   -0.0399 C.2       1 <0>        -0.2300
     31 S2         -1.7970  -12.3300   -0.0510 S.3       1 <0>         0.0559
     32 H1          4.7935    7.2540    1.4385 H         1 <0>         0.0658
     33 H2          5.7204    5.7996    1.9408 H         1 <0>         0.0562
     34 H3          3.9244    5.7700    1.9572 H         1 <0>         0.0608
     35 H4          3.8979    6.0066   -0.5210 H         1 <0>         0.0795
     36 H5          5.6939    6.0362   -0.5374 H         1 <0>         0.0750
     37 H6          6.8728    4.0801    0.4784 H         1 <0>         0.0752
     38 H7          6.0006    2.5098    0.4780 H         1 <0>         0.0773
     39 H8          7.5054    2.7017   -1.4960 H         1 <0>         0.0657
     40 H9          6.6548    4.2019   -1.9987 H         1 <0>         0.0568
     41 H10         5.7824    2.6316   -1.9991 H         1 <0>         0.0601
     42 H11         2.4054    5.2277    0.0071 H         1 <0>         0.1262
     43 H12         0.2926    3.9752    0.0203 H         1 <0>         0.1305
     44 H13         4.6050    1.5584   -0.0320 H         1 <0>         0.1282
     45 H14         3.4608   -0.5251   -0.0178 H         1 <0>         0.4262
     46 H15        -0.9754    1.8317    0.0213 H         1 <0>         0.1151
     47 H16        -2.1615   -0.1840    0.0219 H         1 <0>         0.4000
     48 H17        -4.3899   -3.2694    0.0277 H         1 <0>         0.4479
     49 H18        -3.8257   -1.4496    0.0334 H         1 <0>         0.4366
     50 H19        -1.0468   -6.9667   -0.9260 H         1 <0>         0.1359
     51 H20        -1.0283   -6.9772    0.8701 H         1 <0>         0.1358
     52 H21        -0.6387   -9.5008   -0.0467 H         1 <0>         0.4596
     53 H22        -5.2924  -12.3090   -0.0151 H         1 <0>         0.1737
     54 H23        -3.5661  -14.2515   -0.0437 H         1 <0>         0.2004
@<TRIPOS>BOND
     1    1    2 1
     2    1   32 1
     3    1   33 1
     4    1   34 1
     5    2    3 1
     6    2   35 1
     7    2   36 1
     8    3    4 1
     9    3    6 1
    10    4    5 1
    11    4   37 1
    12    4   38 1
    13    5   39 1
    14    5   40 1
    15    5   41 1
    16    6   11 ar
    17    6    7 ar
    18    7    8 ar
    19    7   42 1
    20    8    9 ar
    21    8   43 1
    22    9   10 ar
    23    9   13 1
    24   10   11 ar
    25   10   12 1
    26   11   44 1
    27   12   45 1
    28   13   14 2
    29   13   46 1
    30   14   15 1
    31   15   16 1
    32   15   47 1
    33   16   20 1
    34   16   17 2
    35   17   18 1
    36   18   19 2
    37   19   20 1
    38   19   22 1
    39   20   21 1
    40   21   48 1
    41   21   49 1
    42   22   23 1
    43   23   24 1
    44   23   50 1
    45   23   51 1
    46   24   25 2
    47   24   26 am
    48   26   27 1
    49   26   52 1
    50   27   31 1
    51   27   28 2
    52   28   29 1
    53   29   30 2
    54   29   53 1
    55   30   31 1
    56   30   54 1
@<TRIPOS>MOLECULE
ZINC39767755
   62    66     0     0     0
SMALL
USER_CHARGES

@<TRIPOS>ATOM
      1 C1         -1.4087    0.0607    0.9135 C.ar      1 <0>        -0.1629
      2 C2         -0.6501    1.1547    0.5391 C.ar      1 <0>        -0.0781
      3 C3          0.6957    1.0037    0.2686 C.ar      1 <0>        -0.1776
      4 C4          1.2873   -0.2488    0.3729 C.ar      1 <0>         0.2212
      5 C5          0.5223   -1.3456    0.7492 C.ar      1 <0>        -0.1873
      6 C6         -0.8230   -1.1876    1.0183 C.ar      1 <0>        -0.0782
      7 N1          2.6481   -0.4052    0.0996 N.pl3     1 <0>        -0.6431
      8 C7          3.3987   -1.6723    0.0545 C.3       1 <0>         0.2916
      9 H1          2.9866   -2.3233   -0.7164 H         1 <0>         0.0945
     10 N2          4.7996   -1.3220   -0.2730 N.3       1 <0>        -0.4548
     11 N3          4.9361    0.0791    0.1556 N.3       1 <0>        -0.4876
     12 C8          3.6170    0.6665   -0.2075 C.3       1 <0>         0.2536
     13 H2          3.5866    0.9155   -1.2682 H         1 <0>         0.1015
     14 S1          3.2787    2.1360    0.8008 S.3       1 <0>        -0.0862
     15 C9          3.3352    1.5204    2.5063 C.3       1 <0>        -0.0662
     16 C10         3.1253    2.6671    3.4614 C.2       1 <0>         0.4085
     17 N4          3.1394    2.4061    4.7946 N.am      1 <0>        -0.6480
     18 H3          3.2825    1.4984    5.1051 H         1 <0>         0.4125
     19 C11         2.9562    3.4012    5.6935 C.2       1 <0>         0.5523
     20 O1          2.9673    3.1818    6.8907 O.2       1 <0>        -0.5014
     21 C12         2.7438    4.7579    5.1674 C.ar      1 <0>        -0.1959
     22 C13         2.5451    5.8515    6.0076 C.ar      1 <0>        -0.0409
     23 C14         2.3503    7.1009    5.4609 C.ar      1 <0>        -0.1347
     24 C15         2.3507    7.2769    4.0832 C.ar      1 <0>        -0.0718
     25 C16         2.5447    6.2095    3.2358 C.ar      1 <0>        -0.1046
     26 C17         2.7448    4.9332    3.7659 C.ar      1 <0>         0.1536
     27 N5          2.9454    3.8545    2.9681 N.2       1 <0>        -0.4953
     28 C18         3.3357   -2.3676    1.4159 C.3       1 <0>         0.1479
     29 H4          2.2955   -2.4643    1.7267 H         1 <0>         0.1130
     30 C19         3.9673   -3.7571    1.3086 C.3       1 <0>         0.0652
     31 O2          5.2936   -3.6387    0.7901 O.3       1 <0>        -0.5432
     32 N6          4.0689   -1.5730    2.4045 N.am      1 <0>        -0.6951
     33 C20         3.7895   -1.7050    3.7164 C.2       1 <0>         0.5505
     34 O3          2.9852   -2.5384    4.0858 O.2       1 <0>        -0.5242
     35 C21         4.4606   -0.8371    4.7052 C.ar      1 <0>        -0.1850
     36 C22         5.4776    0.0308    4.3016 C.ar      1 <0>        -0.0740
     37 C23         6.0996    0.8385    5.2295 C.ar      1 <0>        -0.1385
     38 C24         5.7197    0.7918    6.5602 C.ar      1 <0>        -0.0579
     39 C25         4.7148   -0.0641    6.9696 C.ar      1 <0>        -0.1581
     40 C26         4.0770   -0.8762    6.0493 C.ar      1 <0>         0.1538
     41 F1          3.0908   -1.7087    6.4487 F         1 <0>        -0.1099
     42 H5         -2.4600    0.1823    1.1288 H         1 <0>         0.1191
     43 H6         -1.1108    2.1281    0.4579 H         1 <0>         0.1228
     44 H7          1.2875    1.8584   -0.0241 H         1 <0>         0.1475
     45 H8          0.9791   -2.3208    0.8309 H         1 <0>         0.1203
     46 H9         -1.4183   -2.0399    1.3108 H         1 <0>         0.1227
     47 H10         4.9740   -1.4161   -1.2623 H         1 <0>         0.3313
     48 H11         5.6838    0.5384   -0.3424 H         1 <0>         0.3672
     49 H12         2.5499    0.7786    2.6510 H         1 <0>         0.1125
     50 H13         4.3064    1.0631    2.6955 H         1 <0>         0.1203
     51 H14         2.5435    5.7206    7.0796 H         1 <0>         0.1391
     52 H15         2.1957    7.9508    6.1091 H         1 <0>         0.1353
     53 H16         2.1965    8.2634    3.6716 H         1 <0>         0.1365
     54 H17         2.5429    6.3586    2.1662 H         1 <0>         0.1420
     55 H18         4.0029   -4.2172    2.2961 H         1 <0>         0.0562
     56 H19         3.3698   -4.3771    0.6402 H         1 <0>         0.0502
     57 H20         5.7555   -4.4829    0.6950 H         1 <0>         0.3717
     58 H21         4.7553   -0.9519    2.1149 H         1 <0>         0.4150
     59 H22         5.7764    0.0688    3.2644 H         1 <0>         0.1412
     60 H23         6.8861    1.5098    4.9176 H         1 <0>         0.1400
     61 H24         6.2115    1.4271    7.2819 H         1 <0>         0.1420
     62 H25         4.4241   -0.0958    8.0092 H         1 <0>         0.1483
@<TRIPOS>BOND
     1    1    6 ar
     2    1    2 ar
     3    1   42 1
     4    2    3 ar
     5    2   43 1
     6    3    4 ar
     7    3   44 1
     8    4    5 ar
     9    4    7 1
    10    5    6 ar
    11    5   45 1
    12    6   46 1
    13    7   12 1
    14    7    8 1
    15    8    9 1
    16    8   10 1
    17    8   28 1
    18   10   11 1
    19   10   47 1
    20   11   12 1
    21   11   48 1
    22   12   13 1
    23   12   14 1
    24   14   15 1
    25   15   16 1
    26   15   49 1
    27   15   50 1
    28   16   27 2
    29   16   17 1
    30   17   18 1
    31   17   19 am
    32   19   20 2
    33   19   21 1
    34   21   26 ar
    35   21   22 ar
    36   22   23 ar
    37   22   51 1
    38   23   24 ar
    39   23   52 1
    40   24   25 ar
    41   24   53 1
    42   25   26 ar
    43   25   54 1
    44   26   27 1
    45   28   29 1
    46   28   30 1
    47   28   32 1
    48   30   31 1
    49   30   55 1
    50   30   56 1
    51   31   57 1
    52   32   33 am
    53   32   58 1
    54   33   34 2
    55   33   35 1
    56   35   40 ar
    57   35   36 ar
    58   36   37 ar
    59   36   59 1
    60   37   38 ar
    61   37   60 1
    62   38   39 ar
    63   38   61 1
    64   39   40 ar
    65   39   62 1
    66   40   41 1
@<TRIPOS>MOLECULE
ZINC36610054
   60    62     0     0     0
SMALL
USER_CHARGES

@<TRIPOS>ATOM
      1 C1         -0.3537    1.9848   -1.3187 C.3       1 <0>        -0.1632
      2 C2          0.0024    0.6967   -0.5738 C.3       1 <0>         0.1735
      3 C3          0.9319    1.0246    0.5964 C.3       1 <0>        -0.1617
      4 C4         -1.2758    0.0448   -0.0426 C.3       1 <0>        -0.1565
      5 N1          0.6771   -0.2264   -1.4897 N.am      1 <0>        -0.7216
      6 C5          1.8316    0.1364   -2.0828 C.2       1 <0>         0.5153
      7 O1          2.3120    1.2272   -1.8583 O.2       1 <0>        -0.4816
      8 C6          2.5257   -0.8131   -3.0249 C.3       1 <0>         0.1862
      9 H1          2.2973   -1.8400   -2.7394 H         1 <0>         0.1038
     10 C7          2.0466   -0.5646   -4.4319 C.ar      1 <0>        -0.1404
     11 C8          2.3933    0.6084   -5.0854 C.ar      1 <0>         0.1636
     12 C9          1.9525    0.8371   -6.3802 C.ar      1 <0>        -0.1767
     13 C10         1.1653   -0.1073   -7.0216 C.ar      1 <0>         0.1470
     14 C11         0.8193   -1.2807   -6.3685 C.ar      1 <0>        -0.1797
     15 C12         1.2638   -1.5114   -5.0752 C.ar      1 <0>         0.1641
     16 O2          0.9287   -2.6633   -4.4369 O.3       1 <0>        -0.4870
     17 O3          0.7325    0.1172   -8.2901 O.3       1 <0>        -0.4946
     18 O4          3.1647    1.5339   -4.4568 O.3       1 <0>        -0.4732
     19 N2          3.9732   -0.5978   -2.9567 N.am      1 <0>        -0.5448
     20 C13         4.5219    0.1367   -1.9005 C.ar      1 <0>         0.1473
     21 C14         4.6776   -0.4504   -0.6515 C.ar      1 <0>        -0.1094
     22 C15         5.2197    0.2776    0.3894 C.ar      1 <0>        -0.1105
     23 C16         5.6074    1.5898    0.1890 C.ar      1 <0>        -0.1122
     24 C17         5.4534    2.1775   -1.0532 C.ar      1 <0>        -0.1109
     25 C18         4.9176    1.4530   -2.0999 C.ar      1 <0>        -0.0804
     26 C19         4.7761   -1.1075   -3.9117 C.2       1 <0>         0.5784
     27 O5          4.2927   -1.6600   -4.8815 O.2       1 <0>        -0.4975
     28 C20         6.2381   -0.9954   -3.7812 C.ar      1 <0>        -0.1719
     29 C21         6.9559   -1.9456   -3.0401 C.ar      1 <0>         0.1637
     30 C22         8.3317   -1.8308   -2.9242 C.ar      1 <0>        -0.1515
     31 C23         8.9970   -0.7845   -3.5356 C.ar      1 <0>        -0.0678
     32 C24         8.2993    0.1578   -4.2680 C.ar      1 <0>        -0.1549
     33 C25         6.9239    0.0590   -4.4018 C.ar      1 <0>         0.1552
     34 O6          6.2423    0.9819   -5.1257 O.3       1 <0>        -0.4902
     35 O7          6.3054   -2.9731   -2.4388 O.3       1 <0>        -0.4898
     36 H2          0.5569    2.4492   -1.6971 H         1 <0>         0.0800
     37 H3         -1.0160    1.7512   -2.1523 H         1 <0>         0.0521
     38 H4         -0.8557    2.6716   -0.6373 H         1 <0>         0.0623
     39 H5          0.4299    1.7114    1.2778 H         1 <0>         0.0619
     40 H6          1.1856    0.1069    1.1270 H         1 <0>         0.0526
     41 H7          1.8425    1.4890    0.2179 H         1 <0>         0.0799
     42 H8         -1.9381   -0.1888   -0.8762 H         1 <0>         0.0617
     43 H9         -1.0222   -0.8729    0.4881 H         1 <0>         0.0623
     44 H10        -1.7778    0.7316    0.6388 H         1 <0>         0.0748
     45 H11         0.2929   -1.0988   -1.6692 H         1 <0>         0.3951
     46 H12         2.2219    1.7509   -6.8888 H         1 <0>         0.1384
     47 H13         0.2060   -2.0161   -6.8679 H         1 <0>         0.1400
     48 H14         0.1034   -2.6095   -3.9357 H         1 <0>         0.3893
     49 H15         1.3337   -0.2080   -8.9741 H         1 <0>         0.3967
     50 H16         4.1150    1.4004   -4.5761 H         1 <0>         0.3756
     51 H17         4.3747   -1.4751   -0.4943 H         1 <0>         0.1198
     52 H18         5.3407   -0.1782    1.3609 H         1 <0>         0.1227
     53 H19         6.0311    2.1570    1.0046 H         1 <0>         0.1220
     54 H20         5.7568    3.2026   -1.2064 H         1 <0>         0.1237
     55 H21         4.8020    1.9110   -3.0711 H         1 <0>         0.1127
     56 H22         8.8864   -2.5612   -2.3538 H         1 <0>         0.1398
     57 H23        10.0697   -0.7026   -3.4401 H         1 <0>         0.1387
     58 H24         8.8288    0.9716   -4.7410 H         1 <0>         0.1402
     59 H25         6.0677    1.8050   -4.6491 H         1 <0>         0.3889
     60 H26         6.2188   -3.7614   -2.9921 H         1 <0>         0.3985
@<TRIPOS>BOND
     1    1    2 1
     2    1   36 1
     3    1   37 1
     4    1   38 1
     5    2    3 1
     6    2    4 1
     7    2    5 1
     8    3   39 1
     9    3   40 1
    10    3   41 1
    11    4   42 1
    12    4   43 1
    13    4   44 1
    14    5    6 am
    15    5   45 1
    16    6    7 2
    17    6    8 1
    18    8    9 1
    19    8   10 1
    20    8   19 1
    21   10   15 ar
    22   10   11 ar
    23   11   12 ar
    24   11   18 1
    25   12   13 ar
    26   12   46 1
    27   13   14 ar
    28   13   17 1
    29   14   15 ar
    30   14   47 1
    31   15   16 1
    32   16   48 1
    33   17   49 1
    34   18   50 1
    35   19   20 1
    36   19   26 am
    37   20   25 ar
    38   20   21 ar
    39   21   22 ar
    40   21   51 1
    41   22   23 ar
    42   22   52 1
    43   23   24 ar
    44   23   53 1
    45   24   25 ar
    46   24   54 1
    47   25   55 1
    48   26   27 2
    49   26   28 1
    50   28   33 ar
    51   28   29 ar
    52   29   30 ar
    53   29   35 1
    54   30   31 ar
    55   30   56 1
    56   31   32 ar
    57   31   57 1
    58   32   33 ar
    59   32   58 1
    60   33   34 1
    61   34   59 1
    62   35   60 1
@<TRIPOS>MOLECULE
ZINC15973034
   54    57     0     0     0
SMALL
USER_CHARGES

@<TRIPOS>ATOM
      1 C1         -0.0188    1.4469   -0.0228 C.3       1 <0>        -0.1143
      2 C2          0.0152   -0.0597   -0.0241 C.ar      1 <0>        -0.0912
      3 C3          0.0317   -0.7462   -1.2208 C.ar      1 <0>        -0.0712
      4 C4          0.0625   -2.1294   -1.2323 C.ar      1 <0>        -0.0519
      5 C5          0.0768   -2.8279   -0.0363 C.ar      1 <0>        -0.0407
      6 C6          0.0605   -2.1456    1.1591 C.ar      1 <0>        -0.1024
      7 C7          0.0355   -0.7547    1.1826 C.ar      1 <0>         0.1547
      8 N1          0.0308   -0.2943    2.5013 N.am      1 <0>        -0.6527
      9 C8          0.0560   -1.3033    3.3918 C.2       1 <0>         0.5222
     10 O1          0.0586   -1.2012    4.6004 O.2       1 <0>        -0.4595
     11 C9          0.0684   -2.5846    2.5985 C.3       1 <0>         0.1293
     12 C10         1.3258   -3.4012    2.9189 C.3       1 <0>        -0.1165
     13 H1          1.9345   -3.5275    2.0236 H         1 <0>         0.1138
     14 C11         0.7955   -4.7708    3.4073 C.3       1 <0>        -0.1416
     15 C12        -0.6298   -4.8273    2.8010 C.3       1 <0>         0.0926
     16 H2         -0.5917   -5.1438    1.7586 H         1 <0>         0.1087
     17 N2         -1.1028   -3.4214    2.9052 N.3       1 <0>        -0.6148
     18 C13        -1.5256   -5.7633    3.6148 C.3       1 <0>        -0.1435
     19 C14        -2.8641   -5.8945    2.9350 C.2       1 <0>         0.5136
     20 O2         -3.0803   -5.2981    1.9013 O.2       1 <0>        -0.5189
     21 N3         -3.8209   -6.6746    3.4756 N.am      1 <0>        -0.8613
     22 C15         2.1254   -2.7284    4.0048 C.2       1 <0>         0.5130
     23 O3          1.8607   -2.9360    5.1701 O.2       1 <0>        -0.4851
     24 N4          3.1348   -1.8960    3.6810 N.am      1 <0>        -0.6634
     25 C16         3.9547   -1.3651    4.6856 C.ar      1 <0>         0.1361
     26 C17         4.2484   -2.1175    5.8134 C.ar      1 <0>        -0.0757
     27 C18         5.0583   -1.5915    6.8033 C.ar      1 <0>        -0.0500
     28 C19         5.5765   -0.3151    6.6717 C.ar      1 <0>        -0.0837
     29 C20         5.2871    0.4399    5.5503 C.ar      1 <0>        -0.1774
     30 C21         4.4816   -0.0827    4.5516 C.ar      1 <0>         0.1083
     31 O4          4.2014    0.6570    3.4454 O.3       1 <0>        -0.3152
     32 C22         4.7761    1.9635    3.3758 C.3       1 <0>         0.0265
     33 Cl1         5.4251   -2.5340    8.2142 Cl        1 <0>        -0.0617
     34 Cl2         0.0827   -2.9871   -2.7415 Cl        1 <0>        -0.0589
     35 H3          1.0004    1.8333   -0.0264 H         1 <0>         0.0759
     36 H4         -0.5442    1.7993   -0.9104 H         1 <0>         0.0769
     37 H5         -0.5373    1.7979    0.8695 H         1 <0>         0.0638
     38 H6          0.0202   -0.2011   -2.1531 H         1 <0>         0.1431
     39 H7          0.1003   -3.9076   -0.0416 H         1 <0>         0.1391
     40 H8          0.0121    0.6439    2.7469 H         1 <0>         0.4162
     41 H9          1.4115   -5.5829    3.0210 H         1 <0>         0.0930
     42 H10         0.7530   -4.8020    4.4961 H         1 <0>         0.0988
     43 H11        -1.4546   -3.2258    3.8304 H         1 <0>         0.3488
     44 H12        -1.0564   -6.7446    3.6857 H         1 <0>         0.1085
     45 H13        -1.6648   -5.3540    4.6154 H         1 <0>         0.0996
     46 H14        -3.6480   -7.1517    4.3024 H         1 <0>         0.4002
     47 H15        -4.6825   -6.7591    3.0381 H         1 <0>         0.4019
     48 H16         3.2936   -1.6644    2.7525 H         1 <0>         0.4139
     49 H17         3.8444   -3.1136    5.9185 H         1 <0>         0.1508
     50 H18         6.2083    0.0923    7.4471 H         1 <0>         0.1393
     51 H19         5.6929    1.4358    5.4508 H         1 <0>         0.1427
     52 H20         4.4740    2.4442    2.4454 H         1 <0>         0.1032
     53 H21         4.4300    2.5582    4.2211 H         1 <0>         0.0582
     54 H22         5.8628    1.8845    3.4078 H         1 <0>         0.0592
@<TRIPOS>BOND
     1    1    2 1
     2    1   35 1
     3    1   36 1
     4    1   37 1
     5    2    7 ar
     6    2    3 ar
     7    3    4 ar
     8    3   38 1
     9    4    5 ar
    10    4   34 1
    11    5    6 ar
    12    5   39 1
    13    6   11 1
    14    6    7 ar
    15    7    8 1
    16    8    9 am
    17    8   40 1
    18    9   10 2
    19    9   11 1
    20   11   17 1
    21   11   12 1
    22   12   13 1
    23   12   14 1
    24   12   22 1
    25   14   15 1
    26   14   41 1
    27   14   42 1
    28   15   16 1
    29   15   17 1
    30   15   18 1
    31   17   43 1
    32   18   19 1
    33   18   44 1
    34   18   45 1
    35   19   20 2
    36   19   21 am
    37   21   46 1
    38   21   47 1
    39   22   23 2
    40   22   24 am
    41   24   25 1
    42   24   48 1
    43   25   30 ar
    44   25   26 ar
    45   26   27 ar
    46   26   49 1
    47   27   28 ar
    48   27   33 1
    49   28   29 ar
    50   28   50 1
    51   29   30 ar
    52   29   51 1
    53   30   31 1
    54   31   32 1
    55   32   52 1
    56   32   53 1
    57   32   54 1
@<TRIPOS>MOLECULE
ZINC12477124
   61    63     0     0     0
SMALL
USER_CHARGES
4-amino-N'-[(1S)-2-(tert-butylamino)-2-oxo-1-(p-tolyl)ethyl]-N'-(3-hydroxyphenyl)isothiazole-3,5-dicarboxamide
@<TRIPOS>ATOM
      1 C1          4.2598    4.5482    4.6517 C.3       1 <0>        -0.1195
      2 C2          3.4610    4.9355    3.4339 C.ar      1 <0>        -0.0695
      3 C3          3.4503    6.2490    3.0034 C.ar      1 <0>        -0.1203
      4 C4          2.7179    6.6042    1.8860 C.ar      1 <0>        -0.0943
      5 C5          1.9959    5.6459    1.1995 C.ar      1 <0>        -0.1120
      6 C6          2.0020    4.3334    1.6334 C.ar      1 <0>        -0.0831
      7 C7          2.7386    3.9773    2.7477 C.ar      1 <0>        -0.1200
      8 C8          1.1971    6.0332   -0.0183 C.3       1 <0>         0.1808
      9 H1          1.2066    7.1175   -0.1293 H         1 <0>         0.1137
     10 C9          1.8062    5.3976   -1.2415 C.2       1 <0>         0.5186
     11 O1          1.1509    4.6332   -1.9176 O.2       1 <0>        -0.5102
     12 N1          3.0790    5.6788   -1.5840 N.am      1 <0>        -0.7185
     13 C10         3.6711    5.0609   -2.7731 C.3       1 <0>         0.1720
     14 C11         2.8601    5.4541   -4.0095 C.3       1 <0>        -0.1635
     15 C12         5.1137    5.5445   -2.9344 C.3       1 <0>        -0.1558
     16 C13         3.6578    3.5389   -2.6173 C.3       1 <0>        -0.1621
     17 N2         -0.1842    5.5702    0.1362 N.am      1 <0>        -0.5502
     18 C14        -0.5317    4.7559    1.2186 C.ar      1 <0>         0.1419
     19 C15        -0.8450    3.4182    1.0104 C.ar      1 <0>        -0.1250
     20 C16        -1.1892    2.6143    2.0795 C.ar      1 <0>        -0.0905
     21 C17        -1.2225    3.1374    3.3584 C.ar      1 <0>        -0.1334
     22 C18        -0.9153    4.4738    3.5717 C.ar      1 <0>         0.1218
     23 C19        -0.5647    5.2828    2.5020 C.ar      1 <0>        -0.1267
     24 O2         -0.9539    4.9880    4.8290 O.3       1 <0>        -0.4931
     25 C20        -1.1199    5.9290   -0.7650 C.2       1 <0>         0.6388
     26 O3         -0.8034    6.5761   -1.7462 O.2       1 <0>        -0.5170
     27 C21        -2.5170    5.5407   -0.5636 C.2       1 <0>        -0.3913
     28 C22        -3.6132    5.7081   -1.4120 C.2       1 <0>         0.2768
     29 C23        -4.7933    5.2035   -0.8657 C.2       1 <0>        -0.0407
     30 N3         -4.7651    4.6501    0.3265 N.2       1 <0>        -0.4513
     31 S1         -3.2718    4.7212    0.8256 S.3       1 <0>         0.4714
     32 C24        -6.0589    5.2903   -1.6170 C.2       1 <0>         0.6022
     33 O4         -6.0776    5.8039   -2.7191 O.2       1 <0>        -0.5425
     34 N4         -7.1949    4.8005   -1.0824 N.am      1 <0>        -0.8312
     35 N5         -3.5371    6.3100   -2.6609 N.pl3     1 <0>        -0.8053
     36 H2          3.6362    4.6433    5.5406 H         1 <0>         0.0731
     37 H3          4.5961    3.5161    4.5525 H         1 <0>         0.0679
     38 H4          5.1248    5.2051    4.7428 H         1 <0>         0.0683
     39 H5          4.0143    6.9977    3.5397 H         1 <0>         0.1262
     40 H6          2.7095    7.6304    1.5497 H         1 <0>         0.1266
     41 H7          1.4344    3.5856    1.0997 H         1 <0>         0.1281
     42 H8          2.7467    2.9511    3.0843 H         1 <0>         0.1236
     43 H9          3.6031    6.2901   -1.0432 H         1 <0>         0.3979
     44 H10         2.8696    6.5384   -4.1205 H         1 <0>         0.0540
     45 H11         3.3007    4.9944   -4.8942 H         1 <0>         0.0615
     46 H12         1.8324    5.1096   -3.8946 H         1 <0>         0.0794
     47 H13         5.6914    5.2644   -2.0536 H         1 <0>         0.0616
     48 H14         5.5542    5.0848   -3.8191 H         1 <0>         0.0741
     49 H15         5.1232    6.6288   -3.0454 H         1 <0>         0.0622
     50 H16         2.6301    3.1944   -2.5024 H         1 <0>         0.0767
     51 H17         4.0983    3.0793   -3.5020 H         1 <0>         0.0624
     52 H18         4.2355    3.2588   -1.7364 H         1 <0>         0.0529
     53 H19        -0.8197    3.0070    0.0121 H         1 <0>         0.1365
     54 H20        -1.4324    1.5749    1.9158 H         1 <0>         0.1379
     55 H21        -1.4923    2.5064    4.1923 H         1 <0>         0.1357
     56 H22        -0.3220    6.3222    2.6665 H         1 <0>         0.1344
     57 H23        -0.1154    4.9234    5.3063 H         1 <0>         0.3921
     58 H24        -7.1800    4.3908   -0.2033 H         1 <0>         0.4114
     59 H25        -8.0276    4.8576   -1.5767 H         1 <0>         0.4093
     60 H26        -2.6866    6.6425   -2.9881 H         1 <0>         0.4162
     61 H27        -4.3344    6.3981   -3.2062 H         1 <0>         0.4188
@<TRIPOS>BOND
     1    1    2 1
     2    1   36 1
     3    1   37 1
     4    1   38 1
     5    2    7 ar
     6    2    3 ar
     7    3    4 ar
     8    3   39 1
     9    4    5 ar
    10    4   40 1
    11    5    6 ar
    12    5    8 1
    13    6    7 ar
    14    6   41 1
    15    7   42 1
    16    8    9 1
    17    8   10 1
    18    8   17 1
    19   10   11 2
    20   10   12 am
    21   12   13 1
    22   12   43 1
    23   13   14 1
    24   13   15 1
    25   13   16 1
    26   14   44 1
    27   14   45 1
    28   14   46 1
    29   15   47 1
    30   15   48 1
    31   15   49 1
    32   16   50 1
    33   16   51 1
    34   16   52 1
    35   17   18 1
    36   17   25 am
    37   18   23 ar
    38   18   19 ar
    39   19   20 ar
    40   19   53 1
    41   20   21 ar
    42   20   54 1
    43   21   22 ar
    44   21   55 1
    45   22   23 ar
    46   22   24 1
    47   23   56 1
    48   24   57 1
    49   25   26 2
    50   25   27 1
    51   27   31 1
    52   27   28 2
    53   28   29 1
    54   28   35 1
    55   29   30 2
    56   29   32 1
    57   30   31 1
    58   32   33 2
    59   32   34 am
    60   34   58 1
    61   34   59 1
    62   35   60 1
    63   35   61 1
@<TRIPOS>MOLECULE
ZINC12410619
   53    55     0     0     0
SMALL
USER_CHARGES
4-[(2R)-4,6-diamino-2-(3,4,5-trimethoxyphenyl)-2H-1,3,5-triazin-1-yl]benzenesulfonamide
@<TRIPOS>ATOM
      1 C1          3.4547    3.6293   -0.0855 C.3       1 <0>         0.0198
      2 O1          2.2323    4.3694   -0.0895 O.3       1 <0>        -0.2924
      3 C2          1.0766    3.6529   -0.0694 C.ar      1 <0>         0.1587
      4 C3          1.1192    2.2671   -0.0462 C.ar      1 <0>        -0.2080
      5 C4         -0.0549    1.5379   -0.0248 C.ar      1 <0>        -0.0814
      6 C5         -1.2758    2.1862   -0.0326 C.ar      1 <0>        -0.2147
      7 C6         -1.3270    3.5718   -0.0504 C.ar      1 <0>         0.1576
      8 C7         -0.1488    4.3086   -0.0716 C.ar      1 <0>         0.0551
      9 O2         -0.1949    5.6686   -0.0947 O.3       1 <0>        -0.3098
     10 C8         -0.2263    6.2949   -1.3788 C.3       1 <0>         0.0326
     11 O3         -2.5286    4.2088   -0.0524 O.3       1 <0>        -0.2906
     12 C9         -3.6980    3.3879   -0.0300 C.3       1 <0>         0.0174
     13 C10        -0.0039    0.0320    0.0009 C.3       1 <0>         0.4352
     14 H1          0.0292   -0.3284    1.0397 H         1 <0>         0.1560
     15 N1          1.1891   -0.4348   -0.7149 N.pl3     1 <0>        -0.7168
     16 C11         1.1232   -0.7308   -1.9856 C.cat     1 <0>         0.7307
     17 N2         -0.0294   -0.6652   -2.6734 N.2       1 <0>        -0.6362
     18 C12        -1.1864   -0.5456   -2.0488 C.2       1 <0>         0.7333
     19 N3         -1.1910   -0.5159   -0.6734 N.pl3     1 <0>        -0.6076
     20 C13        -2.2856   -0.9893    0.0578 C.ar      1 <0>         0.1718
     21 C14        -3.5032   -0.3241   -0.0030 C.ar      1 <0>        -0.1678
     22 C15        -4.5834   -0.7972    0.7160 C.ar      1 <0>         0.0052
     23 C16        -4.4505   -1.9255    1.5043 C.ar      1 <0>        -0.6509
     24 C17        -3.2380   -2.5870    1.5711 C.ar      1 <0>         0.0185
     25 C18        -2.1554   -2.1222    0.8505 C.ar      1 <0>        -0.1290
     26 S1         -5.8292   -2.5218    2.4253 S.o2      1 <0>         2.6311
     27 O4         -6.9945   -2.0445    1.7669 O.2       1 <0>        -0.9744
     28 O5         -5.5966   -3.9047    2.6552 O.2       1 <0>        -0.9393
     29 N4         -5.7857   -1.7820    3.9062 N.pl3     1 <0>        -1.1595
     30 N5         -2.3544   -0.4537   -2.7535 N.pl3     1 <0>        -0.8033
     31 N6          2.2726   -1.1224   -2.6420 N.pl3     1 <0>        -0.8199
     32 H2          4.3054    4.3264   -0.1032 H         1 <0>         0.1138
     33 H3          3.4936    2.9808   -0.9731 H         1 <0>         0.0554
     34 H4          3.5060    3.0111    0.8229 H         1 <0>         0.0616
     35 H5          2.0710    1.7568   -0.0445 H         1 <0>         0.1358
     36 H6         -2.1909    1.6128   -0.0203 H         1 <0>         0.1375
     37 H7         -0.2622    7.3871   -1.2532 H         1 <0>         0.1036
     38 H8         -1.1181    5.9595   -1.9286 H         1 <0>         0.0477
     39 H9          0.6772    6.0201   -1.9429 H         1 <0>         0.0479
     40 H10        -4.5940    4.0260   -0.0342 H         1 <0>         0.1164
     41 H11        -3.6935    2.7681    0.8787 H         1 <0>         0.0616
     42 H12        -3.7066    2.7377   -0.9173 H         1 <0>         0.0516
     43 H13        -3.6065    0.5597   -0.6150 H         1 <0>         0.1407
     44 H14        -5.5316   -0.2825    0.6662 H         1 <0>         0.1603
     45 H15        -3.1375   -3.4680    2.1878 H         1 <0>         0.1607
     46 H16        -1.2085   -2.6389    0.9037 H         1 <0>         0.1439
     47 H17        -6.6340   -2.1290    4.5145 H         1 <0>         0.4231
     48 H18        -5.8512   -0.6920    3.7736 H         1 <0>         0.4103
     49 H19        -3.3117   -0.3544   -2.2209 H         1 <0>         0.4498
     50 H20        -2.3368   -0.4791   -3.8531 H         1 <0>         0.4714
     51 H21         2.2359   -1.3754   -3.7119 H         1 <0>         0.4701
     52 H22         3.2252   -1.1815   -2.0952 H         1 <0>         0.4534
     53 H23         2.1426   -0.5349   -0.1756 H         1 <0>         0.4619
@<TRIPOS>BOND
     1    1    2 1
     2    1   32 1
     3    1   33 1
     4    1   34 1
     5    2    3 1
     6    3    8 ar
     7    3    4 ar
     8    4    5 ar
     9    4   35 1
    10    5    6 ar
    11    5   13 1
    12    6    7 ar
    13    6   36 1
    14    7    8 ar
    15    7   11 1
    16    8    9 1
    17    9   10 1
    18   10   37 1
    19   10   38 1
    20   10   39 1
    21   11   12 1
    22   12   40 1
    23   12   41 1
    24   12   42 1
    25   13   14 1
    26   13   19 1
    27   13   15 1
    28   15   16 2
    29   15   53 1
    30   16   17 1
    31   16   31 1
    32   17   18 2
    33   18   19 1
    34   18   30 1
    35   19   20 1
    36   20   25 ar
    37   20   21 ar
    38   21   22 ar
    39   21   43 1
    40   22   23 ar
    41   22   44 1
    42   23   24 ar
    43   23   26 1
    44   24   25 ar
    45   24   45 1
    46   25   46 1
    47   26   27 2
    48   26   28 2
    49   26   29 1
    50   29   47 1
    51   29   48 1
    52   30   49 1
    53   30   50 1
    54   31   51 1
    55   31   52 1
@<TRIPOS>MOLECULE
ZINC31159879
   69    72     0     0     0
SMALL
USER_CHARGES

@<TRIPOS>ATOM
      1 C1         -0.0173    1.4248    0.0099 C.3       1 <0>         0.0247
      2 O1          0.0021   -0.0041    0.0020 O.3       1 <0>        -0.3047
      3 C2         -1.2011   -0.6379    0.0101 C.ar      1 <0>         0.1058
      4 C3         -2.3743    0.0994    0.0195 C.ar      1 <0>        -0.1622
      5 C4         -3.5965   -0.5465    0.0272 C.ar      1 <0>        -0.0851
      6 C5         -3.6519   -1.9279    0.0261 C.ar      1 <0>        -0.0901
      7 C6         -2.4852   -2.6694    0.0172 C.ar      1 <0>        -0.1471
      8 C7         -1.2569   -2.0283    0.0032 C.ar      1 <0>         0.1028
      9 O2         -0.1083   -2.7563   -0.0116 O.3       1 <0>        -0.3077
     10 C8         -0.2420   -4.1790   -0.0180 C.3       1 <0>         0.2134
     11 H1         -0.8708   -4.4813   -0.8555 H         1 <0>         0.1145
     12 C9          1.1405   -4.8211   -0.1598 C.3       1 <0>         0.0675
     13 H2          1.0358   -5.9051   -0.2054 H         1 <0>         0.0998
     14 C10         1.9984   -4.4403    1.0508 C.3       1 <0>         0.0845
     15 H3          2.1447   -3.3603    1.0687 H         1 <0>         0.0829
     16 C11         1.2809   -4.8815    2.3302 C.3       1 <0>         0.0906
     17 H4          1.8581   -4.5652    3.1990 H         1 <0>         0.0827
     18 C12        -0.1070   -4.2371    2.3758 C.3       1 <0>         0.1027
     19 H5         -0.0033   -3.1526    2.4120 H         1 <0>         0.0891
     20 O3         -0.8413   -4.6068    1.2067 O.3       1 <0>        -0.3559
     21 C13        -0.8532   -4.7201    3.6211 C.3       1 <0>         0.0900
     22 O4         -2.1007   -4.0312    3.7260 O.3       1 <0>        -0.5652
     23 O5          1.1486   -6.3044    2.3370 O.3       1 <0>        -0.5496
     24 O6          3.2665   -5.0930    0.9624 O.3       1 <0>        -0.5606
     25 O7          1.7650   -4.3509   -1.3560 O.3       1 <0>        -0.5502
     26 C14        -4.8714    0.2570    0.0374 C.3       1 <0>         0.1341
     27 H6         -4.7100    1.2402   -0.4046 H         1 <0>         0.1014
     28 C15        -5.4258    0.3870    1.4757 C.3       1 <0>        -0.0672
     29 H7         -5.1433    1.3428    1.9172 H         1 <0>         0.1084
     30 C16        -6.9230    0.3194    1.2420 C.ar      1 <0>        -0.1220
     31 C17        -7.9952    0.6433    2.0414 C.ar      1 <0>        -0.0758
     32 C18        -9.2963    0.4862    1.5603 C.ar      1 <0>        -0.0471
     33 C19        -9.4974   -0.0001    0.2673 C.ar      1 <0>        -0.1689
     34 C20        -8.4162   -0.3259   -0.5265 C.ar      1 <0>         0.1160
     35 C21        -7.1127   -0.1716   -0.0429 C.ar      1 <0>         0.0762
     36 O8         -5.9211   -0.4445   -0.6502 O.3       1 <0>        -0.2816
     37 O9         -8.6192   -0.7996   -1.7850 O.3       1 <0>        -0.3107
     38 C22        -9.9748   -0.9336   -2.2170 C.3       1 <0>         0.0250
     39 C23       -10.4522    0.8318    2.4137 C.2       1 <0>        -0.0984
     40 C24       -11.6859    0.6807    1.9518 C.2       1 <0>        -0.1477
     41 C25       -12.8647    1.0331    2.8221 C.3       1 <0>         0.1052
     42 O10       -13.8134    1.7813    2.0590 O.3       1 <0>        -0.5712
     43 C26        -4.9551   -0.7767    2.3504 C.3       1 <0>         0.0932
     44 O11        -5.3867   -0.5659    3.6963 O.3       1 <0>        -0.5702
     45 H8          1.0053    1.8021    0.0021 H         1 <0>         0.1016
     46 H9         -0.5445    1.7859   -0.8732 H         1 <0>         0.0560
     47 H10        -0.5275    1.7763    0.9067 H         1 <0>         0.0555
     48 H11        -2.3338    1.1787    0.0211 H         1 <0>         0.1381
     49 H12        -4.6086   -2.4288    0.0325 H         1 <0>         0.1314
     50 H13        -2.5312   -3.7485    0.0167 H         1 <0>         0.1431
     51 H14        -1.0354   -5.7919    3.5426 H         1 <0>         0.0677
     52 H15        -0.2509   -4.5179    4.5068 H         1 <0>         0.0628
     53 H16        -2.6284   -4.2880    4.4946 H         1 <0>         0.3819
     54 H17         1.9911   -6.7779    2.3051 H         1 <0>         0.3886
     55 H18         3.7728   -4.8634    0.1712 H         1 <0>         0.3945
     56 H19         1.2724   -4.5542   -2.1629 H         1 <0>         0.3872
     57 H20        -7.8302    1.0192    3.0403 H         1 <0>         0.1333
     58 H21       -10.5010   -0.1221   -0.1126 H         1 <0>         0.1405
     59 H22        -9.9949   -1.3204   -3.2358 H         1 <0>         0.1024
     60 H23       -10.5002   -1.6231   -1.5561 H         1 <0>         0.0554
     61 H24       -10.4632    0.0404   -2.1883 H         1 <0>         0.0563
     62 H25       -10.2921    1.2074    3.4135 H         1 <0>         0.1241
     63 H26       -11.8460    0.3051    0.9520 H         1 <0>         0.1176
     64 H27       -13.3325    0.1190    3.1878 H         1 <0>         0.0590
     65 H28       -12.5259    1.6314    3.6679 H         1 <0>         0.0541
     66 H29       -14.6000    2.0428    2.5568 H         1 <0>         0.3832
     67 H30        -5.3787   -1.7081    1.9747 H         1 <0>         0.0508
     68 H31        -3.8671   -0.8351    2.3226 H         1 <0>         0.0611
     69 H32        -5.1229   -1.2666    4.3082 H         1 <0>         0.3823
@<TRIPOS>BOND
     1    1    2 1
     2    1   45 1
     3    1   46 1
     4    1   47 1
     5    2    3 1
     6    3    8 ar
     7    3    4 ar
     8    4    5 ar
     9    4   48 1
    10    5    6 ar
    11    5   26 1
    12    6    7 ar
    13    6   49 1
    14    7    8 ar
    15    7   50 1
    16    8    9 1
    17    9   10 1
    18   10   11 1
    19   10   20 1
    20   10   12 1
    21   12   13 1
    22   12   14 1
    23   12   25 1
    24   14   15 1
    25   14   16 1
    26   14   24 1
    27   16   17 1
    28   16   18 1
    29   16   23 1
    30   18   19 1
    31   18   20 1
    32   18   21 1
    33   21   22 1
    34   21   51 1
    35   21   52 1
    36   22   53 1
    37   23   54 1
    38   24   55 1
    39   25   56 1
    40   26   27 1
    41   26   36 1
    42   26   28 1
    43   28   29 1
    44   28   30 1
    45   28   43 1
    46   30   35 ar
    47   30   31 ar
    48   31   32 ar
    49   31   57 1
    50   32   33 ar
    51   32   39 1
    52   33   34 ar
    53   33   58 1
    54   34   35 ar
    55   34   37 1
    56   35   36 1
    57   37   38 1
    58   38   59 1
    59   38   60 1
    60   38   61 1
    61   39   40 2
    62   39   62 1
    63   40   41 1
    64   40   63 1
    65   41   42 1
    66   41   64 1
    67   41   65 1
    68   42   66 1
    69   43   44 1
    70   43   67 1
    71   43   68 1
    72   44   69 1
@<TRIPOS>MOLECULE
ZINC43537127
   61    63     0     0     0
SMALL
USER_CHARGES

@<TRIPOS>ATOM
      1 C1         -0.0388    1.4212    0.0411 C.3       1 <0>         0.0183
      2 O1         -0.0160   -0.0076    0.0288 O.3       1 <0>        -0.2743
      3 C2         -1.2148   -0.6428    0.0374 C.ar      1 <0>         0.2081
      4 C3         -2.3890    0.0886    0.0515 C.ar      1 <0>        -0.2032
      5 C4         -3.6141   -0.5684    0.0603 C.ar      1 <0>        -0.0199
      6 C5         -3.6633   -1.9621    0.0549 C.ar      1 <0>        -0.1821
      7 C6         -2.5109   -2.6924    0.0415 C.ar      1 <0>        -0.0280
      8 C7         -1.2700   -2.0457    0.0262 C.ar      1 <0>        -0.1782
      9 C8         -0.0270   -2.8335    0.0045 C.2       1 <0>         0.5648
     10 O2          1.0506   -2.2693   -0.0037 O.2       1 <0>        -0.4873
     11 N1         -0.0827   -4.1801   -0.0062 N.am      1 <0>        -0.7257
     12 C9          1.1546   -4.9642   -0.0278 C.3       1 <0>         0.1609
     13 H1          1.9192   -4.4527    0.5568 H         1 <0>         0.1015
     14 C10         0.8928   -6.3466    0.5734 C.3       1 <0>        -0.1146
     15 C11         2.1850   -7.1656    0.5509 C.3       1 <0>         0.1345
     16 C12         2.6657   -7.3202   -0.8934 C.3       1 <0>        -0.1636
     17 C13         2.9275   -5.9378   -1.4946 C.3       1 <0>         0.0523
     18 H2          3.6921   -5.4262   -0.9099 H         1 <0>         0.1175
     19 C14         1.6353   -5.1188   -1.4720 C.3       1 <0>         0.1070
     20 H3          0.8707   -5.6304   -2.0567 H         1 <0>         0.0559
     21 O3          1.8798   -3.8277   -2.0335 O.3       1 <0>        -0.5368
     22 O4          3.3765   -6.0822   -2.8435 O.3       1 <0>        -0.5681
     23 C15         3.2421   -6.4583    1.3591 C.2       1 <0>         0.4955
     24 O5          4.0958   -5.8029    0.7999 O.2       1 <0>        -0.5005
     25 N2          3.2389   -6.5540    2.7035 N.am      1 <0>        -0.7058
     26 C16         4.2666   -5.8664    3.4892 C.3       1 <0>         0.1340
     27 H4          4.5193   -4.9219    3.0074 H         1 <0>         0.1221
     28 C17         3.7315   -5.5919    4.8968 C.3       1 <0>        -0.1314
     29 C18         4.8986   -5.1289    5.7772 C.3       1 <0>        -0.1354
     30 C19         5.8621   -6.3008    5.9691 C.3       1 <0>         0.1058
     31 N3          6.2069   -6.8936    4.6829 N.am      1 <0>        -0.7192
     32 C20         5.4932   -6.7291    3.5699 C.2       1 <0>         0.5042
     33 O6          5.8554   -7.3071    2.5671 O.2       1 <0>        -0.5345
     34 O7          1.9405   -8.4567    1.1123 O.3       1 <0>        -0.5437
     35 S1         -5.1097    0.3629    0.0789 S.3       1 <0>        -0.1021
     36 C21        -6.4126   -0.8993    0.0857 C.3       1 <0>        -0.1472
     37 H5          0.9829    1.8009    0.0325 H         1 <0>         0.1056
     38 H6         -0.5687    1.7837   -0.8397 H         1 <0>         0.0580
     39 H7         -0.5479    1.7687    0.9401 H         1 <0>         0.0574
     40 H8         -2.3540    1.1680    0.0561 H         1 <0>         0.1413
     41 H9         -4.6185   -2.4660    0.0618 H         1 <0>         0.1306
     42 H10        -2.5565   -3.7714    0.0381 H         1 <0>         0.1337
     43 H11        -0.9420   -4.6300    0.0003 H         1 <0>         0.3951
     44 H12         0.5504   -6.2365    1.6023 H         1 <0>         0.0927
     45 H13         0.1282   -6.8582   -0.0112 H         1 <0>         0.0960
     46 H14         3.5863   -7.9036   -0.9095 H         1 <0>         0.0798
     47 H15         1.9011   -7.8317   -1.4780 H         1 <0>         0.0887
     48 H16         2.1880   -3.8492   -2.9498 H         1 <0>         0.3792
     49 H17         4.1932   -6.5919   -2.9337 H         1 <0>         0.3834
     50 H18         2.5562   -7.0781    3.1508 H         1 <0>         0.4085
     51 H19         2.9715   -4.8117    4.8549 H         1 <0>         0.0880
     52 H20         3.2998   -6.5037    5.3096 H         1 <0>         0.0791
     53 H21         5.4187   -4.3037    5.2908 H         1 <0>         0.0787
     54 H22         4.5194   -4.8048    6.7464 H         1 <0>         0.0948
     55 H23         6.7697   -5.9449    6.4566 H         1 <0>         0.0814
     56 H24         5.3908   -7.0554    6.5988 H         1 <0>         0.0692
     57 H25         7.0052   -7.4425    4.6348 H         1 <0>         0.4013
     58 H26         2.7180   -9.0314    1.1303 H         1 <0>         0.3895
     59 H27        -7.3885   -0.4140    0.0973 H         1 <0>         0.1125
     60 H28        -6.3246   -1.5171   -0.8080 H         1 <0>         0.0875
     61 H29        -6.3075   -1.5252    0.9719 H         1 <0>         0.0874
@<TRIPOS>BOND
     1    1    2 1
     2    1   37 1
     3    1   38 1
     4    1   39 1
     5    2    3 1
     6    3    8 ar
     7    3    4 ar
     8    4    5 ar
     9    4   40 1
    10    5    6 ar
    11    5   35 1
    12    6    7 ar
    13    6   41 1
    14    7    8 ar
    15    7   42 1
    16    8    9 1
    17    9   10 2
    18    9   11 am
    19   11   12 1
    20   11   43 1
    21   12   13 1
    22   12   19 1
    23   12   14 1
    24   14   15 1
    25   14   44 1
    26   14   45 1
    27   15   16 1
    28   15   23 1
    29   15   34 1
    30   16   17 1
    31   16   46 1
    32   16   47 1
    33   17   18 1
    34   17   19 1
    35   17   22 1
    36   19   20 1
    37   19   21 1
    38   21   48 1
    39   22   49 1
    40   23   24 2
    41   23   25 am
    42   25   26 1
    43   25   50 1
    44   26   27 1
    45   26   32 1
    46   26   28 1
    47   28   29 1
    48   28   51 1
    49   28   52 1
    50   29   30 1
    51   29   53 1
    52   29   54 1
    53   30   31 1
    54   30   55 1
    55   30   56 1
    56   31   32 am
    57   31   57 1
    58   32   33 2
    59   34   58 1
    60   35   36 1
    61   36   59 1
    62   36   60 1
    63   36   61 1
@<TRIPOS>MOLECULE
ZINC64164809
   55    58     0     0     0
SMALL
USER_CHARGES

@<TRIPOS>ATOM
      1 C1         -0.0173    1.4248    0.0099 C.3       1 <0>         0.0077
      2 O1          0.0021   -0.0041    0.0020 O.3       1 <0>        -0.2802
      3 C2          0.6244   -0.6170    1.0392 C.ar      1 <0>         0.2974
      4 C3          1.2001    0.1778    2.0487 C.ar      1 <0>        -0.2082
      5 C4          1.8336   -0.3712    3.1073 C.ar      1 <0>         0.0203
      6 C5          1.9228   -1.8340    3.2061 C.ar      1 <0>        -0.1716
      7 C6          2.4792   -2.6550    4.1236 C.2       1 <0>         0.0561
      8 C7          2.2236   -4.0640    3.6375 C.3       1 <0>         0.0688
      9 N1          1.4815   -3.9276    2.3793 N.pl3     1 <0>        -0.5938
     10 C8          1.3095   -2.6493    2.1326 C.ar      1 <0>         0.3498
     11 C9          0.6638   -1.9736    1.0673 C.ar      1 <0>        -0.2720
     12 C10         3.2078   -2.2486    5.3786 C.3       1 <0>        -0.1021
     13 C11         2.2347   -2.2584    6.5592 C.3       1 <0>         0.1241
     14 N2          2.9430   -1.8633    7.7792 N.am      1 <0>        -0.7267
     15 C12         2.2819   -1.8008    8.9520 C.2       1 <0>         0.5375
     16 O2          1.1006   -2.0716    8.9974 O.2       1 <0>        -0.5018
     17 C13         3.0105   -1.3944   10.2070 C.3       1 <0>        -0.1596
     18 S1          1.8567   -1.4060   11.6067 S.3       1 <0>        -0.0290
     19 C14         2.8760   -0.9013   13.0198 C.3       1 <0>         0.2529
     20 H1          2.2761   -0.8865   13.9297 H         1 <0>         0.1518
     21 N3          4.0250   -1.8265   13.1790 N.3       1 <0>        -0.4782
     22 N4          5.1250   -0.9160   13.5426 N.4       1 <0>        -0.2662
     23 N5          4.8304    0.2845   12.7486 N.3       1 <0>        -0.1944
     24 N6          3.4617    0.4275   12.7754 N.pl3     1 <0>        -0.5264
     25 C15         2.7535    1.6196   12.6011 C.ar      1 <0>         0.1965
     26 C16         1.8467    2.0380   13.5662 C.ar      1 <0>        -0.1015
     27 C17         1.1487    3.2168   13.3913 C.ar      1 <0>        -0.0831
     28 C18         1.3512    3.9808   12.2564 C.ar      1 <0>        -0.0884
     29 C19         2.2530    3.5680   11.2930 C.ar      1 <0>        -0.0854
     30 C20         2.9592    2.3923   11.4642 C.ar      1 <0>        -0.0415
     31 Cl1         4.0963    1.8777   10.2576 Cl        1 <0>        -0.0661
     32 H2          1.0053    1.8021    0.0021 H         1 <0>         0.0766
     33 H3         -0.5445    1.7859   -0.8732 H         1 <0>         0.1261
     34 H4         -0.5275    1.7763    0.9067 H         1 <0>         0.0764
     35 H5          1.1336    1.2532    1.9744 H         1 <0>         0.1664
     36 H6          2.2691    0.2566    3.8706 H         1 <0>         0.1658
     37 H7          3.1686   -4.5782    3.4624 H         1 <0>         0.1688
     38 H8          1.6273   -4.6109    4.3679 H         1 <0>         0.1678
     39 H9          0.2038   -2.5409    0.2717 H         1 <0>         0.1686
     40 H10         4.0195   -2.9503    5.5709 H         1 <0>         0.1185
     41 H11         3.6165   -1.2460    5.2529 H         1 <0>         0.1140
     42 H12         1.4231   -1.5567    6.3669 H         1 <0>         0.0841
     43 H13         1.8260   -3.2611    6.6849 H         1 <0>         0.0845
     44 H14         3.8878   -1.6467    7.7429 H         1 <0>         0.4067
     45 H15         3.8221   -2.0960   10.3993 H         1 <0>         0.1229
     46 H16         3.4192   -0.3917   10.0813 H         1 <0>         0.1179
     47 H17         3.8514   -2.4955   13.9140 H         1 <0>         0.4150
     48 H18         5.1034   -0.7059   14.5293 H         1 <0>         0.4480
     49 H19         5.1655    0.1833   11.8022 H         1 <0>         0.3799
     50 H20         1.6872    1.4418   14.4526 H         1 <0>         0.1400
     51 H21         0.4434    3.5424   14.1417 H         1 <0>         0.1488
     52 H22         0.8033    4.9017   12.1222 H         1 <0>         0.1491
     53 H23         2.4086    4.1667   10.4078 H         1 <0>         0.1485
     54 H24         1.1703   -4.6587    1.8230 H         1 <0>         0.4570
     55 H25         6.0161   -1.3091   13.2788 H         1 <0>         0.4616
@<TRIPOS>BOND
     1    1    2 1
     2    1   32 1
     3    1   33 1
     4    1   34 1
     5    2    3 1
     6    3   11 ar
     7    3    4 ar
     8    4    5 ar
     9    4   35 1
    10    5    6 ar
    11    5   36 1
    12    6   10 ar
    13    6    7 2
    14    7    8 1
    15    7   12 1
    16    8    9 1
    17    8   37 1
    18    8   38 1
    19    9   10 2
    20    9   54 1
    21   10   11 ar
    22   11   39 1
    23   12   13 1
    24   12   40 1
    25   12   41 1
    26   13   14 1
    27   13   42 1
    28   13   43 1
    29   14   15 am
    30   14   44 1
    31   15   16 2
    32   15   17 1
    33   17   18 1
    34   17   45 1
    35   17   46 1
    36   18   19 1
    37   19   20 1
    38   19   24 1
    39   19   21 1
    40   21   22 1
    41   21   47 1
    42   22   23 1
    43   22   48 1
    44   22   55 1
    45   23   24 1
    46   23   49 1
    47   24   25 1
    48   25   30 ar
    49   25   26 ar
    50   26   27 ar
    51   26   50 1
    52   27   28 ar
    53   27   51 1
    54   28   29 ar
    55   28   52 1
    56   29   30 ar
    57   29   53 1
    58   30   31 1
@<TRIPOS>MOLECULE
ZINC02299199
   68    72     0     0     0
SMALL
USER_CHARGES
(2S)-2-[[(2S)-3-(2,3-diphenylbenzo[g]indol-1-yl)-2-hydroxy-propyl]amino]butan-1-ol
@<TRIPOS>ATOM
      1 C1          7.2933   -1.0957    2.2158 C.3       1 <0>        -0.1742
      2 C2          6.9896   -2.5170    1.7379 C.3       1 <0>        -0.1451
      3 C3          5.6379   -2.5363    1.0214 C.3       1 <0>         0.0338
      4 H1          5.6419   -1.7994    0.2183 H         1 <0>         0.1491
      5 C4          5.3912   -3.9279    0.4353 C.3       1 <0>         0.0515
      6 O1          5.5015   -4.9071    1.4703 O.3       1 <0>        -0.5755
      7 C5          3.4024   -1.6466    1.2921 C.3       1 <0>        -0.0442
      8 C6          2.3157   -1.3223    2.3192 C.3       1 <0>         0.0609
      9 H2          2.6998   -0.5989    3.0384 H         1 <0>         0.1321
     10 C7          1.0978   -0.7335    1.6044 C.3       1 <0>         0.0673
     11 N1          0.0913   -0.3438    2.5950 N.pl3     1 <0>        -0.4452
     12 C8          0.0826    0.8466    3.2797 C.ar      1 <0>         0.0905
     13 C9          0.9400    1.9705    3.2640 C.ar      1 <0>        -0.0316
     14 C10         2.0651    2.0115    2.4276 C.ar      1 <0>        -0.1407
     15 C11         2.8725    3.1093    2.4351 C.ar      1 <0>        -0.1110
     16 C12         2.5963    4.1931    3.2637 C.ar      1 <0>        -0.1196
     17 C13         1.5120    4.1859    4.0887 C.ar      1 <0>        -0.0911
     18 C14         0.6579    3.0717    4.1070 C.ar      1 <0>        -0.0278
     19 C15        -0.4712    3.0385    4.9519 C.ar      1 <0>        -0.1306
     20 C16        -1.2919    1.9606    4.9541 C.ar      1 <0>        -0.0554
     21 C17        -1.0282    0.8526    4.1280 C.ar      1 <0>        -0.0868
     22 C18        -1.7089   -0.4338    3.9252 C.2       1 <0>        -0.0899
     23 C19        -0.9750   -1.1178    2.9768 C.2       1 <0>         0.1189
     24 C20        -1.2874   -2.4641    2.4572 C.ar      1 <0>        -0.0291
     25 C21        -1.3882   -2.6789    1.0808 C.ar      1 <0>        -0.1199
     26 C22        -1.6746   -3.9404    0.6022 C.ar      1 <0>        -0.1182
     27 C23        -1.8734   -4.9893    1.4826 C.ar      1 <0>        -0.1078
     28 C24        -1.7807   -4.7824    2.8477 C.ar      1 <0>        -0.1126
     29 C25        -1.4892   -3.5274    3.3400 C.ar      1 <0>        -0.0787
     30 C26        -2.9381   -0.9031    4.6030 C.ar      1 <0>        -0.0167
     31 C27        -4.1072   -1.1095    3.8698 C.ar      1 <0>        -0.1008
     32 C28        -5.2482   -1.5521    4.5067 C.ar      1 <0>        -0.1169
     33 C29        -5.2379   -1.7806    5.8712 C.ar      1 <0>        -0.1151
     34 C30        -4.0834   -1.5728    6.6047 C.ar      1 <0>        -0.1177
     35 C31        -2.9343   -1.1354    5.9788 C.ar      1 <0>        -0.1055
     36 O2          1.9347   -2.5178    3.0031 O.3       1 <0>        -0.5349
     37 H3          7.3269   -0.4235    1.3584 H         1 <0>         0.0721
     38 H4          6.5129   -0.7690    2.9032 H         1 <0>         0.0499
     39 H5          8.2562   -1.0819    2.7263 H         1 <0>         0.0869
     40 H6          6.9560   -3.1892    2.5953 H         1 <0>         0.0979
     41 H7          7.7699   -2.8437    1.0506 H         1 <0>         0.1123
     42 H8          4.3917   -3.9679    0.0024 H         1 <0>         0.0688
     43 H9          6.1309   -4.1325   -0.3388 H         1 <0>         0.0960
     44 H10         5.3567   -5.8148    1.1700 H         1 <0>         0.4098
     45 H11         3.0183   -2.3700    0.5729 H         1 <0>         0.1376
     46 H12         3.6930   -0.7348    0.7704 H         1 <0>         0.1447
     47 H13         1.4014    0.1424    1.0309 H         1 <0>         0.1127
     48 H14         0.6754   -1.4798    0.9315 H         1 <0>         0.1100
     49 H15         2.2901    1.1770    1.7800 H         1 <0>         0.1122
     50 H16         3.7381    3.1387    1.7899 H         1 <0>         0.1213
     51 H17         3.2510    5.0519    3.2529 H         1 <0>         0.1270
     52 H18         1.3104    5.0339    4.7264 H         1 <0>         0.1338
     53 H19        -0.6864    3.8793    5.5947 H         1 <0>         0.1333
     54 H20        -2.1528    1.9470    5.6061 H         1 <0>         0.1278
     55 H21        -1.2380   -1.8601    0.3928 H         1 <0>         0.1189
     56 H22        -1.7485   -4.1090   -0.4620 H         1 <0>         0.1263
     57 H23        -2.1015   -5.9741    1.1025 H         1 <0>         0.1267
     58 H24        -1.9367   -5.6056    3.5291 H         1 <0>         0.1289
     59 H25        -1.4169   -3.3673    4.4056 H         1 <0>         0.1270
     60 H26        -4.1176   -0.9272    2.8054 H         1 <0>         0.1173
     61 H27        -6.1526   -1.7162    3.9397 H         1 <0>         0.1233
     62 H28        -6.1349   -2.1231    6.3658 H         1 <0>         0.1234
     63 H29        -4.0817   -1.7530    7.6696 H         1 <0>         0.1243
     64 H30        -2.0337   -0.9735    6.5524 H         1 <0>         0.1205
     65 H31         1.5829   -3.2074    2.4236 H         1 <0>         0.3865
     66 N2          4.5724   -2.2136    1.9890 N.4       1 <0>        -0.5125
     67 H32         4.9269   -1.5293    2.6674 H         1 <0>         0.4308
     68 H33         4.2913   -3.0696    2.4813 H         1 <0>         0.4430
@<TRIPOS>BOND
     1    1    2 1
     2    1   37 1
     3    1   38 1
     4    1   39 1
     5    2    3 1
     6    2   40 1
     7    2   41 1
     8    3    4 1
     9    3    5 1
    10    3   66 1
    11    5    6 1
    12    5   42 1
    13    5   43 1
    14    6   44 1
    15    7    8 1
    16    7   45 1
    17    7   46 1
    18    7   66 1
    19    8    9 1
    20    8   10 1
    21    8   36 1
    22   10   11 1
    23   10   47 1
    24   10   48 1
    25   11   23 1
    26   11   12 1
    27   12   21 ar
    28   12   13 ar
    29   13   18 ar
    30   13   14 ar
    31   14   15 ar
    32   14   49 1
    33   15   16 ar
    34   15   50 1
    35   16   17 ar
    36   16   51 1
    37   17   18 ar
    38   17   52 1
    39   18   19 ar
    40   19   20 ar
    41   19   53 1
    42   20   21 ar
    43   20   54 1
    44   21   22 1
    45   22   23 2
    46   22   30 1
    47   23   24 1
    48   24   29 ar
    49   24   25 ar
    50   25   26 ar
    51   25   55 1
    52   26   27 ar
    53   26   56 1
    54   27   28 ar
    55   27   57 1
    56   28   29 ar
    57   28   58 1
    58   29   59 1
    59   30   35 ar
    60   30   31 ar
    61   31   32 ar
    62   31   60 1
    63   32   33 ar
    64   32   61 1
    65   33   34 ar
    66   33   62 1
    67   34   35 ar
    68   34   63 1
    69   35   64 1
    70   36   65 1
    71   66   67 1
    72   66   68 1
@<TRIPOS>MOLECULE
ZINC25672197
   63    66     0     0     0
SMALL
USER_CHARGES
(2S)-N-(3-chloro-4-methyl-phenyl)-2-[3-(1,3-dioxo-2,4-diazaspiro[4.4]nonan-2-yl)propylamino]-2-phenyl-acetamide
@<TRIPOS>ATOM
      1 C1         -4.1517    0.8272   11.6836 C.3       1 <0>        -0.1260
      2 C2         -3.1996    0.7723   10.5168 C.ar      1 <0>        -0.0709
      3 C3         -3.3821    1.6166    9.4369 C.ar      1 <0>        -0.0887
      4 C4         -2.5086    1.5722    8.3682 C.ar      1 <0>        -0.1078
      5 C5         -1.4514    0.6713    8.3734 C.ar      1 <0>         0.1342
      6 C6         -1.2697   -0.1752    9.4587 C.ar      1 <0>        -0.1220
      7 C7         -2.1442   -0.1226   10.5282 C.ar      1 <0>        -0.0208
      8 Cl1        -1.9184   -1.1804   11.8861 Cl        1 <0>        -0.0474
      9 N1         -0.5679    0.6211    7.2896 N.am      1 <0>        -0.6505
     10 C8         -1.0165    0.8663    6.0425 C.2       1 <0>         0.5140
     11 O1         -2.2014    1.0359    5.8467 O.2       1 <0>        -0.5123
     12 C9         -0.0459    0.9297    4.8915 C.3       1 <0>         0.0724
     13 H1          0.4690   -0.0355    4.7764 H         1 <0>         0.1706
     14 C10         0.9570    2.0268    5.1399 C.ar      1 <0>        -0.1467
     15 C11         0.6217    3.3420    4.8777 C.ar      1 <0>        -0.1161
     16 C12         1.5401    4.3488    5.1097 C.ar      1 <0>        -0.0964
     17 C13         2.7969    4.0394    5.5952 C.ar      1 <0>        -0.0843
     18 C14         3.1339    2.7237    5.8525 C.ar      1 <0>        -0.0995
     19 C15         2.2140    1.7174    5.6246 C.ar      1 <0>        -0.0900
     20 N2         -0.7778    1.2075    3.6485 N.4       1 <0>        -0.5294
     21 C16        -0.0390    0.7105    2.4801 C.3       1 <0>         0.0006
     22 C17        -0.8309    1.0176    1.2075 C.3       1 <0>        -0.1688
     23 C18        -0.0614    0.4999   -0.0093 C.3       1 <0>         0.1221
     24 N3         -0.8196    0.7939   -1.2279 N.am      1 <0>        -0.5816
     25 C19        -0.6901    1.9295   -1.9473 C.2       1 <0>         0.5331
     26 O2          0.0463    2.8650   -1.7188 O.2       1 <0>        -0.4571
     27 C20        -1.6566    1.7855   -3.0951 C.3       1 <0>         0.0994
     28 C21        -0.9247    1.8412   -4.4427 C.3       1 <0>        -0.1238
     29 C22        -1.9229    2.5672   -5.3816 C.3       1 <0>        -0.1233
     30 C23        -2.5623    3.6284   -4.4507 C.3       1 <0>        -0.1208
     31 C24        -2.6965    2.9085   -3.0904 C.3       1 <0>        -0.1119
     32 N4         -2.2813    0.4778   -2.8864 N.am      1 <0>        -0.7230
     33 C25        -1.7234   -0.0325   -1.7702 C.2       1 <0>         0.7106
     34 O3         -2.0106   -1.1185   -1.3064 O.2       1 <0>        -0.5408
     35 H2         -4.9188    1.5928   11.4952 H         1 <0>         0.0750
     36 H3         -3.5963    1.0819   12.5983 H         1 <0>         0.0810
     37 H4         -4.6349   -0.1530   11.8089 H         1 <0>         0.0807
     38 H5         -4.2063    2.3145    9.4312 H         1 <0>         0.1408
     39 H6         -2.6497    2.2349    7.5271 H         1 <0>         0.1370
     40 H7         -0.4460   -0.8736    9.4676 H         1 <0>         0.1401
     41 H8          0.4928    0.3815    7.4553 H         1 <0>         0.4452
     42 H9         -0.3589    3.5833    4.4948 H         1 <0>         0.1219
     43 H10         1.2767    5.3767    4.9090 H         1 <0>         0.1392
     44 H11         3.5153    4.8258    5.7740 H         1 <0>         0.1394
     45 H12         4.1158    2.4821    6.2319 H         1 <0>         0.1413
     46 H13         2.4773    0.6894    5.8256 H         1 <0>         0.1379
     47 H14        -1.7592    0.7117    3.6822 H         1 <0>         0.4609
     48 H15         0.9424    1.2047    2.4295 H         1 <0>         0.1367
     49 H16         0.1022   -0.3766    2.5708 H         1 <0>         0.1379
     50 H17        -1.8123    0.5234    1.2582 H         1 <0>         0.0992
     51 H18        -0.9720    2.1047    1.1168 H         1 <0>         0.0940
     52 H19         0.9200    0.9941   -0.0599 H         1 <0>         0.1066
     53 H20         0.0797   -0.5872    0.0814 H         1 <0>         0.1101
     54 H21         0.0159    2.3995   -4.3263 H         1 <0>         0.0878
     55 H22        -0.7044    0.8186   -4.7829 H         1 <0>         0.0850
     56 H23        -1.3746    3.0163   -6.2228 H         1 <0>         0.0813
     57 H24        -2.6566    1.8437   -5.7666 H         1 <0>         0.0752
     58 H25        -1.9033    4.5070   -4.3893 H         1 <0>         0.0776
     59 H26        -3.5394    3.9305   -4.8558 H         1 <0>         0.0805
     60 H27        -3.7012    2.4774   -2.9690 H         1 <0>         0.0887
     61 H28        -2.4896    3.5964   -2.2573 H         1 <0>         0.0781
     62 H29        -3.0449    0.1145   -3.5899 H         1 <0>         0.4758
     63 H30        -0.9189    2.2931    3.5409 H         1 <0>         0.4481
@<TRIPOS>BOND
     1    1    2 1
     2    1   35 1
     3    1   36 1
     4    1   37 1
     5    2    7 ar
     6    2    3 ar
     7    3    4 ar
     8    3   38 1
     9    4    5 ar
    10    4   39 1
    11    5    6 ar
    12    5    9 1
    13    6    7 ar
    14    6   40 1
    15    7    8 1
    16    9   10 am
    17    9   41 1
    18   10   11 2
    19   10   12 1
    20   12   13 1
    21   12   14 1
    22   12   20 1
    23   14   19 ar
    24   14   15 ar
    25   15   16 ar
    26   15   42 1
    27   16   17 ar
    28   16   43 1
    29   17   18 ar
    30   17   44 1
    31   18   19 ar
    32   18   45 1
    33   19   46 1
    34   20   21 1
    35   20   47 1
    36   20   63 1
    37   21   22 1
    38   21   48 1
    39   21   49 1
    40   22   23 1
    41   22   50 1
    42   22   51 1
    43   23   24 1
    44   23   52 1
    45   23   53 1
    46   24   33 am
    47   24   25 am
    48   25   26 2
    49   25   27 1
    50   27   31 1
    51   27   28 1
    52   27   32 1
    53   28   29 1
    54   28   54 1
    55   28   55 1
    56   29   30 1
    57   29   56 1
    58   29   57 1
    59   30   31 1
    60   30   58 1
    61   30   59 1
    62   31   60 1
    63   31   61 1
    64   32   33 am
    65   32   62 1
    66   33   34 2
@<TRIPOS>MOLECULE
ZINC39448858
   65    69     0     0     0
SMALL
USER_CHARGES

@<TRIPOS>ATOM
      1 C1         -0.0187    1.5258    0.0104 C.3       1 <0>        -0.1473
      2 C2          0.0021   -0.0041    0.0020 C.3       1 <0>        -0.0663
      3 C3          0.7421   -0.5109    1.2415 C.3       1 <0>        -0.1464
      4 C4         -1.4117   -0.5257    0.0127 C.ar      1 <0>        -0.0415
      5 C5         -2.2591   -0.2043    1.0565 C.ar      1 <0>        -0.1087
      6 C6         -3.5560   -0.6827    1.0663 C.ar      1 <0>        -0.0908
      7 C7         -4.0056   -1.4823    0.0321 C.ar      1 <0>        -0.1722
      8 C8         -3.1585   -1.8029   -1.0121 C.ar      1 <0>        -0.0831
      9 C9         -1.8629   -1.3209   -1.0241 C.ar      1 <0>        -0.1099
     10 C10        -5.4191   -2.0047    0.0433 C.3       1 <0>         0.4221
     11 H1         -6.0761   -1.2976   -0.4632 H         1 <0>         0.1586
     12 N1         -5.8667   -2.1908    1.4285 N.pl3     1 <0>        -0.6890
     13 C11        -5.7242   -3.3477    2.0190 C.cat     1 <0>         0.7211
     14 N2         -5.2114   -4.4136    1.3824 N.2       1 <0>        -0.6079
     15 C12        -5.0637   -4.4140    0.0693 C.2       1 <0>         0.4541
     16 N3         -5.4718   -3.3069   -0.6391 N.pl3     1 <0>        -0.7131
     17 S1         -4.3591   -5.8015   -0.7571 S.3       1 <0>         0.1773
     18 C13        -3.9940   -6.9704    0.5812 C.3       1 <0>        -0.1636
     19 C14        -3.3786   -8.2190    0.0037 C.2       1 <0>         0.5397
     20 O1         -3.2036   -8.3111   -1.1930 O.2       1 <0>        -0.4945
     21 N4         -3.0228   -9.2331    0.8169 N.am      1 <0>        -0.5057
     22 C15        -3.2204   -9.1527    2.2028 C.ar      1 <0>         0.1274
     23 C16        -4.5095   -8.9089    2.6636 C.ar      1 <0>        -0.1317
     24 C17        -4.7713   -8.8554    4.0166 C.ar      1 <0>        -0.1032
     25 C18        -3.7351   -9.0512    4.9115 C.ar      1 <0>        -0.1106
     26 C19        -2.4573   -9.2781    4.4550 C.ar      1 <0>        -0.1086
     27 C20        -2.1670   -9.3165    3.0893 C.ar      1 <0>        -0.0689
     28 C21        -0.7022   -9.4880    2.7587 C.3       1 <0>        -0.0750
     29 C22        -0.4134   -9.4471    1.2684 C.3       1 <0>        -0.0809
     30 C23        -1.1054  -10.5728    0.5421 C.ar      1 <0>        -0.0811
     31 C24        -2.4488  -10.4042    0.3038 C.ar      1 <0>         0.1227
     32 C25        -3.1739  -11.3534   -0.3953 C.ar      1 <0>        -0.0927
     33 C26        -2.5242  -12.4971   -0.8310 C.ar      1 <0>        -0.1108
     34 C27        -1.1789  -12.6815   -0.5685 C.ar      1 <0>        -0.1038
     35 C28        -0.4496  -11.7082    0.1265 C.ar      1 <0>        -0.1016
     36 N5         -6.1121   -3.4784    3.3374 N.pl3     1 <0>        -0.7862
     37 H2          1.0039    1.9031    0.0027 H         1 <0>         0.0663
     38 H3         -0.5459    1.8868   -0.8726 H         1 <0>         0.0585
     39 H4         -0.5289    1.8773    0.9072 H         1 <0>         0.0575
     40 H5          0.5123   -0.3556   -0.8948 H         1 <0>         0.0848
     41 H6          0.2319   -0.1594    2.1383 H         1 <0>         0.0569
     42 H7          0.7568   -1.6008    1.2356 H         1 <0>         0.0562
     43 H8          1.7647   -0.1336    1.2338 H         1 <0>         0.0666
     44 H9         -1.9079    0.4204    1.8645 H         1 <0>         0.1320
     45 H10        -4.2179   -0.4322    1.8822 H         1 <0>         0.1198
     46 H11        -3.5096   -2.4278   -1.8199 H         1 <0>         0.1278
     47 H12        -1.2022   -1.5684   -1.8418 H         1 <0>         0.1348
     48 H13        -3.2968   -6.5129    1.2831 H         1 <0>         0.1421
     49 H14        -4.9170   -7.2273    1.1011 H         1 <0>         0.1455
     50 H15        -5.3120   -8.7600    1.9564 H         1 <0>         0.1250
     51 H16        -5.7725   -8.6626    4.3728 H         1 <0>         0.1326
     52 H17        -3.9299   -9.0256    5.9735 H         1 <0>         0.1302
     53 H18        -1.6609   -9.4300    5.1686 H         1 <0>         0.1305
     54 H19        -0.1383   -8.6927    3.2461 H         1 <0>         0.0896
     55 H20        -0.3642  -10.4458    3.1542 H         1 <0>         0.0862
     56 H21        -0.7597   -8.4959    0.8642 H         1 <0>         0.0683
     57 H22         0.6621   -9.5295    1.1114 H         1 <0>         0.0840
     58 H23        -4.2247  -11.2058   -0.5969 H         1 <0>         0.1274
     59 H24        -3.0720  -13.2496   -1.3788 H         1 <0>         0.1326
     60 H25        -0.6859  -13.5828   -0.9017 H         1 <0>         0.1316
     61 H26         0.6012  -11.8447    0.3352 H         1 <0>         0.1357
     62 H27        -6.4840   -2.7181    3.8112 H         1 <0>         0.4298
     63 H28        -6.0129   -4.3306    3.7899 H         1 <0>         0.4415
     64 H29        -5.7836   -3.3820   -1.5545 H         1 <0>         0.4434
     65 H30        -6.2702   -1.4507    1.9085 H         1 <0>         0.4346
@<TRIPOS>BOND
     1    1    2 1
     2    1   37 1
     3    1   38 1
     4    1   39 1
     5    2    3 1
     6    2    4 1
     7    2   40 1
     8    3   41 1
     9    3   42 1
    10    3   43 1
    11    4    9 ar
    12    4    5 ar
    13    5    6 ar
    14    5   44 1
    15    6    7 ar
    16    6   45 1
    17    7    8 ar
    18    7   10 1
    19    8    9 ar
    20    8   46 1
    21    9   47 1
    22   10   11 1
    23   10   16 1
    24   10   12 1
    25   12   13 2
    26   12   65 1
    27   13   14 1
    28   13   36 1
    29   14   15 2
    30   15   16 1
    31   15   17 1
    32   16   64 1
    33   17   18 1
    34   18   19 1
    35   18   48 1
    36   18   49 1
    37   19   20 2
    38   19   21 am
    39   21   31 1
    40   21   22 1
    41   22   27 ar
    42   22   23 ar
    43   23   24 ar
    44   23   50 1
    45   24   25 ar
    46   24   51 1
    47   25   26 ar
    48   25   52 1
    49   26   27 ar
    50   26   53 1
    51   27   28 1
    52   28   29 1
    53   28   54 1
    54   28   55 1
    55   29   30 1
    56   29   56 1
    57   29   57 1
    58   30   35 ar
    59   30   31 ar
    60   31   32 ar
    61   32   33 ar
    62   32   58 1
    63   33   34 ar
    64   33   59 1
    65   34   35 ar
    66   34   60 1
    67   35   61 1
    68   36   62 1
    69   36   63 1
@<TRIPOS>MOLECULE
ZINC40781458
   49    52     0     0     0
SMALL
USER_CHARGES

@<TRIPOS>ATOM
      1 C1         -0.0837    1.3081    0.6947 C.ar      1 <0>        -0.1030
      2 C2          1.0998    1.9942    0.4967 C.ar      1 <0>        -0.1183
      3 C3          2.2795    1.2981    0.3104 C.ar      1 <0>        -0.0942
      4 C4          2.2756   -0.0842    0.3226 C.ar      1 <0>        -0.1242
      5 C5          1.0922   -0.7703    0.5216 C.ar      1 <0>        -0.0954
      6 C6         -0.0877   -0.0742    0.7065 C.ar      1 <0>        -0.1166
      7 C7          3.5615   -0.8431    0.1186 C.3       1 <0>         0.1666
      8 N1          4.2012   -1.0776    1.4155 N.pl3     1 <0>        -0.5606
      9 C8          3.9076   -2.2299    2.1379 C.ar      1 <0>         0.3880
     10 C9          3.1563   -3.2410    1.5474 C.ar      1 <0>        -0.2136
     11 C10         2.8721   -4.3813    2.2768 C.ar      1 <0>        -0.0316
     12 C11         3.3506   -4.4725    3.5773 C.ar      1 <0>        -0.2027
     13 C12         4.0901   -3.4308    4.1003 C.ar      1 <0>         0.1445
     14 N2          4.3502   -2.3566    3.3793 N.ar      1 <0>        -0.5305
     15 C13         5.1023   -0.1482    1.9247 C.ar      1 <0>         0.4342
     16 C14         6.4491   -0.1926    1.5593 C.ar      1 <0>         0.1268
     17 C15         7.3105    0.7644    2.0993 C.ar      1 <0>         0.4184
     18 N3          6.8187    1.6757    2.9355 N.ar      1 <0>        -0.5047
     19 C16         5.5404    1.6820    3.2547 C.ar      1 <0>         0.3352
     20 N4          4.6930    0.8005    2.7634 N.ar      1 <0>        -0.4362
     21 N5          8.6611    0.7651    1.7690 N.pl3     1 <0>        -0.6402
     22 C17         9.5092    1.7430    2.2968 C.ar      1 <0>         0.0891
     23 C18         9.9377    2.7968    1.4997 C.ar      1 <0>        -0.0900
     24 C19        10.7752    3.7615    2.0243 C.ar      1 <0>        -0.0864
     25 C20        11.1878    3.6794    3.3418 C.ar      1 <0>        -0.0804
     26 C21        10.7639    2.6319    4.1385 C.ar      1 <0>        -0.0741
     27 C22         9.9209    1.6664    3.6219 C.ar      1 <0>        -0.1062
     28 Br1         9.3346    0.2386    4.7145 Br        1 <0>        -0.0190
     29 N6          6.9241   -1.1727    0.6738 N.pl3     1 <0>        -0.8322
     30 H1         -1.0046    1.8520    0.8447 H         1 <0>         0.1265
     31 H2          1.1029    3.0742    0.4871 H         1 <0>         0.1244
     32 H3          3.2041    1.8342    0.1549 H         1 <0>         0.1104
     33 H4          1.0891   -1.8503    0.5308 H         1 <0>         0.1223
     34 H5         -1.0123   -0.6103    0.8616 H         1 <0>         0.1268
     35 H6          3.3472   -1.7992   -0.3590 H         1 <0>         0.1089
     36 H7          4.2298   -0.2615   -0.5164 H         1 <0>         0.0928
     37 H8          2.7995   -3.1368    0.5333 H         1 <0>         0.1392
     38 H9          2.2909   -5.1825    1.8448 H         1 <0>         0.1433
     39 H10         3.1459   -5.3494    4.1736 H         1 <0>         0.1407
     40 H11         4.4639   -3.4974    5.1113 H         1 <0>         0.1600
     41 H12         5.1750    2.4356    3.9366 H         1 <0>         0.2449
     42 H13         9.0148    0.0871    1.1723 H         1 <0>         0.4393
     43 H14         9.6166    2.8614    0.4705 H         1 <0>         0.1464
     44 H15        11.1086    4.5809    1.4048 H         1 <0>         0.1500
     45 H16        11.8430    4.4352    3.7491 H         1 <0>         0.1507
     46 H17        11.0886    2.5704    5.1667 H         1 <0>         0.1515
     47 H18         6.3023   -1.7817    0.2456 H         1 <0>         0.4252
     48 H19         7.8741   -1.2408    0.4901 H         1 <0>         0.4092
     49 H20         7.4097    2.3444    3.3155 H         1 <0>         0.4448
@<TRIPOS>BOND
     1    1    6 ar
     2    1    2 ar
     3    1   30 1
     4    2    3 ar
     5    2   31 1
     6    3    4 ar
     7    3   32 1
     8    4    5 ar
     9    4    7 1
    10    5    6 ar
    11    5   33 1
    12    6   34 1
    13    7    8 1
    14    7   35 1
    15    7   36 1
    16    8    9 1
    17    8   15 1
    18    9   14 ar
    19    9   10 ar
    20   10   11 ar
    21   10   37 1
    22   11   12 ar
    23   11   38 1
    24   12   13 ar
    25   12   39 1
    26   13   14 ar
    27   13   40 1
    28   15   20 ar
    29   15   16 ar
    30   16   17 ar
    31   16   29 1
    32   17   18 ar
    33   17   21 1
    34   18   19 ar
    35   18   49 1
    36   19   20 ar
    37   19   41 1
    38   21   22 1
    39   21   42 1
    40   22   27 ar
    41   22   23 ar
    42   23   24 ar
    43   23   43 1
    44   24   25 ar
    45   24   44 1
    46   25   26 ar
    47   25   45 1
    48   26   27 ar
    49   26   46 1
    50   27   28 1
    51   29   47 1
    52   29   48 1
@<TRIPOS>MOLECULE
ZINC63503277
   62    66     0     0     0
SMALL
USER_CHARGES

@<TRIPOS>ATOM
      1 C1         -1.7933    2.1112    1.9863 C.3       1 <0>        -0.1134
      2 C2         -1.4857    0.6683    1.6791 C.ar      1 <0>        -0.0960
      3 C3         -1.3515    0.2422    0.3706 C.ar      1 <0>        -0.0772
      4 C4         -1.0709   -1.0717    0.0764 C.ar      1 <0>        -0.1415
      5 C5         -0.9111   -2.0280    1.0951 C.ar      1 <0>         0.1535
      6 C6         -1.0526   -1.5665    2.4074 C.ar      1 <0>        -0.1303
      7 C7         -1.3273   -0.2505    2.7033 C.ar      1 <0>        -0.0452
      8 S1         -0.7957   -2.9966    3.4329 S.3       1 <0>        -0.1133
      9 C8         -0.4964   -4.2231    2.0977 C.3       1 <0>         0.4103
     10 H1          0.5053   -4.6464    2.1714 H         1 <0>         0.1355
     11 N1         -0.6265   -3.3790    0.9022 N.pl3     1 <0>        -0.7389
     12 N2         -1.5132   -5.2776    2.1130 N.am      1 <0>        -0.7225
     13 C9         -1.4573   -6.2543    3.0401 C.2       1 <0>         0.5059
     14 O1         -0.5652   -6.2602    3.8616 O.2       1 <0>        -0.5001
     15 C10        -2.5033   -7.3390    3.0558 C.3       1 <0>         0.1542
     16 H2         -3.4871   -6.8931    3.2022 H         1 <0>         0.1532
     17 C11        -2.4776   -8.0917    1.7240 C.3       1 <0>        -0.1028
     18 C12        -1.1348   -8.7522    1.5461 C.2       1 <0>         0.0530
     19 C13        -0.8045  -10.0232    1.8700 C.ar      1 <0>        -0.1554
     20 C14        -1.5670  -11.1283    2.4632 C.ar      1 <0>        -0.0102
     21 C15        -0.9490  -12.3128    2.6739 C.ar      1 <0>        -0.1465
     22 C16         0.3981  -12.5107    2.3413 C.ar      1 <0>         0.0587
     23 C17         1.1636  -11.5435    1.7930 C.ar      1 <0>        -0.2097
     24 C18         0.6164  -10.2580    1.5272 C.ar      1 <0>         0.3308
     25 N3          1.1439   -9.1744    1.0115 N.pl3     1 <0>        -0.5819
     26 C19         0.1144   -8.1302    0.9632 C.3       1 <0>         0.0595
     27 N4         -2.2225   -8.2723    4.1496 N.am      1 <0>        -0.7018
     28 C20        -3.2293   -8.9607    4.7233 C.2       1 <0>         0.6520
     29 O2         -4.3698   -8.8072    4.3332 O.2       1 <0>        -0.5555
     30 O3         -2.9713   -9.8184    5.7285 O.3       1 <0>        -0.3515
     31 C21        -4.0861  -10.5143    6.2898 C.3       1 <0>         0.1287
     32 C22        -3.6076  -11.4222    7.3933 C.ar      1 <0>        -0.1077
     33 C23        -3.2304  -12.7206    7.1055 C.ar      1 <0>        -0.0948
     34 C24        -2.7916  -13.5534    8.1177 C.ar      1 <0>        -0.1232
     35 C25        -2.7294  -13.0877    9.4178 C.ar      1 <0>        -0.1019
     36 C26        -3.1056  -11.7890    9.7055 C.ar      1 <0>        -0.1198
     37 C27        -3.5405  -10.9549    8.6926 C.ar      1 <0>        -0.0912
     38 H3         -0.8615    2.6670    2.0913 H         1 <0>         0.0747
     39 H4         -2.3815    2.5382    1.1740 H         1 <0>         0.0713
     40 H5         -2.3594    2.1721    2.9158 H         1 <0>         0.0696
     41 H6         -1.4694    0.9530   -0.4340 H         1 <0>         0.1330
     42 H7         -0.9720   -1.3746   -0.9555 H         1 <0>         0.1251
     43 H8         -1.4235    0.0641    3.7320 H         1 <0>         0.1330
     44 H9         -0.5192   -3.7482    0.0117 H         1 <0>         0.4132
     45 H10        -2.2268   -5.2729    1.4559 H         1 <0>         0.4091
     46 H11        -3.2594   -8.8512    1.7207 H         1 <0>         0.1332
     47 H12        -2.6487   -7.3906    0.9071 H         1 <0>         0.1284
     48 H13        -2.6058  -10.9975    2.7277 H         1 <0>         0.1546
     49 H14        -1.5081  -13.1273    3.1103 H         1 <0>         0.1581
     50 H15         0.8419  -13.4767    2.5317 H         1 <0>         0.1624
     51 H16         2.1973  -11.7468    1.5553 H         1 <0>         0.1619
     52 H17        -0.0644   -7.8233   -0.0673 H         1 <0>         0.1746
     53 H18         0.4225   -7.2737    1.5628 H         1 <0>         0.1637
     54 H19        -1.3121   -8.3948    4.4610 H         1 <0>         0.4176
     55 H20        -4.7975   -9.7944    6.6944 H         1 <0>         0.0832
     56 H21        -4.5710  -11.1083    5.5152 H         1 <0>         0.0816
     57 H22        -3.2790  -13.0844    6.0898 H         1 <0>         0.1222
     58 H23        -2.4976  -14.5680    7.8929 H         1 <0>         0.1274
     59 H24        -2.3871  -13.7386   10.2087 H         1 <0>         0.1280
     60 H25        -3.0574  -11.4253   10.7213 H         1 <0>         0.1291
     61 H26        -3.8309   -9.9391    8.9168 H         1 <0>         0.1257
     62 H27         2.0606   -9.0799    0.7088 H         1 <0>         0.4565
@<TRIPOS>BOND
     1    1    2 1
     2    1   38 1
     3    1   39 1
     4    1   40 1
     5    2    7 ar
     6    2    3 ar
     7    3    4 ar
     8    3   41 1
     9    4    5 ar
    10    4   42 1
    11    5   11 1
    12    5    6 ar
    13    6    7 ar
    14    6    8 1
    15    7   43 1
    16    8    9 1
    17    9   10 1
    18    9   11 1
    19    9   12 1
    20   11   44 1
    21   12   13 am
    22   12   45 1
    23   13   14 2
    24   13   15 1
    25   15   16 1
    26   15   17 1
    27   15   27 1
    28   17   18 1
    29   17   46 1
    30   17   47 1
    31   18   26 1
    32   18   19 2
    33   19   24 ar
    34   19   20 ar
    35   20   21 ar
    36   20   48 1
    37   21   22 ar
    38   21   49 1
    39   22   23 ar
    40   22   50 1
    41   23   24 ar
    42   23   51 1
    43   24   25 2
    44   25   26 1
    45   25   62 1
    46   26   52 1
    47   26   53 1
    48   27   28 am
    49   27   54 1
    50   28   29 2
    51   28   30 1
    52   30   31 1
    53   31   32 1
    54   31   55 1
    55   31   56 1
    56   32   37 ar
    57   32   33 ar
    58   33   34 ar
    59   33   57 1
    60   34   35 ar
    61   34   58 1
    62   35   36 ar
    63   35   59 1
    64   36   37 ar
    65   36   60 1
    66   37   61 1
@<TRIPOS>MOLECULE
ZINC09379404
   66    70     0     0     0
SMALL
USER_CHARGES
4-[(6-amino-1-benzyl-2,4-dioxo-pyrimidin-5-yl)-(4-phenylpiperazin-1-yl)-methyl]benzonitrile
@<TRIPOS>ATOM
      1 C1         -1.3897    2.5431    0.2546 C.ar      1 <0>        -0.0968
      2 C2         -1.4516    1.1902   -0.0223 C.ar      1 <0>        -0.1192
      3 C3         -0.3007    0.4251    0.0081 C.ar      1 <0>        -0.1039
      4 C4          0.9136    1.0147    0.3059 C.ar      1 <0>        -0.1382
      5 C5          0.9761    2.3684    0.5790 C.ar      1 <0>        -0.0849
      6 C6         -0.1755    3.1326    0.5533 C.ar      1 <0>        -0.1161
      7 C7          2.1692    0.1817    0.3334 C.3       1 <0>         0.1435
      8 N1          2.7784    0.1725   -0.9989 N.am      1 <0>        -0.5320
      9 C8          2.4309   -0.8025   -1.9020 C.2       1 <0>         0.5531
     10 C9          3.0000   -0.7998   -3.1451 C.2       1 <0>        -0.4508
     11 C10         3.9368    0.1958   -3.4638 C.2       1 <0>         0.5873
     12 O1          4.4612    0.2149   -4.5643 O.2       1 <0>        -0.5428
     13 N2          4.2534    1.1301   -2.5458 N.am      1 <0>        -0.6592
     14 H1          4.9208    1.8400   -2.7708 H         1 <0>         0.4488
     15 C11         3.6793    1.1161   -1.3291 C.2       1 <0>         0.7099
     16 O2          3.9792    1.9684   -0.5156 O.2       1 <0>        -0.5004
     17 C12         2.6318   -1.8545   -4.1566 C.3       1 <0>         0.1942
     18 H2          2.0097   -2.6127   -3.6808 H         1 <0>         0.1356
     19 C13         1.8698   -1.2187   -5.2907 C.ar      1 <0>        -0.1066
     20 C14         2.5564   -0.6652   -6.3568 C.ar      1 <0>        -0.1059
     21 C15         1.8651   -0.0859   -7.4005 C.ar      1 <0>        -0.0592
     22 C16         0.4695   -0.0491   -7.3741 C.ar      1 <0>         0.0076
     23 C17        -0.2169   -0.6048   -6.2926 C.ar      1 <0>        -0.0620
     24 C18         0.4869   -1.1861   -5.2582 C.ar      1 <0>        -0.0900
     25 C19        -0.2545    0.5563   -8.4511 C.1       1 <0>         0.2301
     26 N3         -0.8289    1.0366   -9.3054 N.1       1 <0>        -0.3790
     27 C20         3.5320   -3.5401   -5.6443 C.3       1 <0>        -0.0031
     28 C21         4.8290   -4.1114   -6.2220 C.3       1 <0>         0.0271
     29 N4          5.6605   -4.6344   -5.1290 N.pl3     1 <0>        -0.4844
     30 C22         5.9825   -3.5750   -4.1629 C.3       1 <0>         0.0221
     31 C23         4.6855   -3.0036   -3.5851 C.3       1 <0>         0.0086
     32 C24         6.8226   -5.2298   -5.6249 C.ar      1 <0>         0.0871
     33 C25         8.0681   -4.7910   -5.1937 C.ar      1 <0>        -0.1632
     34 C26         9.2150   -5.3850   -5.6825 C.ar      1 <0>        -0.0917
     35 C27         9.1248   -6.4085   -6.6081 C.ar      1 <0>        -0.1269
     36 C28         7.8867   -6.8442   -7.0435 C.ar      1 <0>        -0.0925
     37 C29         6.7357   -6.2581   -6.5548 C.ar      1 <0>        -0.1289
     38 N5          1.5167   -1.7666   -1.5618 N.pl3     1 <0>        -0.8243
     39 H3         -2.2893    3.1402    0.2342 H         1 <0>         0.1298
     40 H4         -2.3996    0.7304   -0.2594 H         1 <0>         0.1288
     41 H5         -0.3495   -0.6325   -0.2052 H         1 <0>         0.1159
     42 H6          1.9248    2.8290    0.8120 H         1 <0>         0.1332
     43 H7         -0.1266    4.1903    0.7663 H         1 <0>         0.1307
     44 H8          2.8712    0.6063    1.0510 H         1 <0>         0.1281
     45 H9          1.9220   -0.8385    0.6269 H         1 <0>         0.1049
     46 H10         3.6360   -0.6901   -6.3736 H         1 <0>         0.1390
     47 H11         2.4022    0.3421   -8.2341 H         1 <0>         0.1448
     48 H12        -1.2962   -0.5794   -6.2657 H         1 <0>         0.1455
     49 H13        -0.0427   -1.6163   -4.4211 H         1 <0>         0.1381
     50 H14         2.9769   -4.3330   -5.1430 H         1 <0>         0.1411
     51 H15         2.9265   -3.1255   -6.4503 H         1 <0>         0.1384
     52 H16         5.3709   -3.3246   -6.7468 H         1 <0>         0.0696
     53 H17         4.5935   -4.9172   -6.9173 H         1 <0>         0.1292
     54 H18         6.5376   -2.7821   -4.6642 H         1 <0>         0.0716
     55 H19         6.5880   -3.9896   -3.3569 H         1 <0>         0.1281
     56 H20         4.9211   -2.1979   -2.8898 H         1 <0>         0.1291
     57 H21         4.1436   -3.7904   -3.0604 H         1 <0>         0.1373
     58 H22         8.1393   -3.9887   -4.4742 H         1 <0>         0.1259
     59 H23        10.1835   -5.0471   -5.3446 H         1 <0>         0.1286
     60 H24        10.0235   -6.8683   -6.9921 H         1 <0>         0.1285
     61 H25         7.8198   -7.6440   -7.7661 H         1 <0>         0.1309
     62 H26         5.7690   -6.5986   -6.8955 H         1 <0>         0.1276
     63 H27         1.1917   -1.8265   -0.6499 H         1 <0>         0.4197
     64 H28         1.1952   -2.3885   -2.2331 H         1 <0>         0.4246
     65 N6          3.8693   -2.4614   -4.6916 N.4       1 <0>        -0.3961
     66 H29         4.4098   -1.7395   -5.1824 H         1 <0>         0.4338
@<TRIPOS>BOND
     1    1    6 ar
     2    1    2 ar
     3    1   39 1
     4    2    3 ar
     5    2   40 1
     6    3    4 ar
     7    3   41 1
     8    4    5 ar
     9    4    7 1
    10    5    6 ar
    11    5   42 1
    12    6   43 1
    13    7    8 1
    14    7   44 1
    15    7   45 1
    16    8   15 am
    17    8    9 1
    18    9   10 2
    19    9   38 1
    20   10   11 1
    21   10   17 1
    22   11   12 2
    23   11   13 am
    24   13   14 1
    25   13   15 am
    26   15   16 2
    27   17   18 1
    28   17   19 1
    29   17   65 1
    30   19   24 ar
    31   19   20 ar
    32   20   21 ar
    33   20   46 1
    34   21   22 ar
    35   21   47 1
    36   22   23 ar
    37   22   25 1
    38   23   24 ar
    39   23   48 1
    40   24   49 1
    41   25   26 3
    42   27   28 1
    43   27   50 1
    44   27   51 1
    45   27   65 1
    46   28   29 1
    47   28   52 1
    48   28   53 1
    49   29   30 1
    50   29   32 1
    51   30   31 1
    52   30   54 1
    53   30   55 1
    54   31   56 1
    55   31   57 1
    56   31   65 1
    57   32   37 ar
    58   32   33 ar
    59   33   34 ar
    60   33   58 1
    61   34   35 ar
    62   34   59 1
    63   35   36 ar
    64   35   60 1
    65   36   37 ar
    66   36   61 1
    67   37   62 1
    68   38   63 1
    69   38   64 1
    70   65   66 1
@<TRIPOS>MOLECULE
ZINC16958100
   66    69     0     0     0
SMALL
USER_CHARGES
[[(3R)-3-[(8aS)-4-hydroxy-2-oxo-6,7,8,8a-tetrahydrochromen-3-yl]-3-phenyl-1-(2-pyrrolidin-1-ylethyl)propylidene]amino]thiourea
@<TRIPOS>ATOM
      1 C1         -0.5151   -2.3893    0.1950 C.ar      1 <0>        -0.1121
      2 C2         -1.5870   -1.6035   -0.1849 C.ar      1 <0>        -0.1196
      3 C3         -1.4255   -0.2386   -0.3321 C.ar      1 <0>        -0.0981
      4 C4         -0.1923    0.3407   -0.0987 C.ar      1 <0>        -0.0781
      5 C5          0.8808   -0.4458    0.2765 C.ar      1 <0>        -0.1123
      6 C6          0.7183   -1.8101    0.4280 C.ar      1 <0>        -0.1201
      7 C7         -0.0163    1.8288   -0.2591 C.3       1 <0>         0.0029
      8 H1          1.0063    2.0422   -0.5705 H         1 <0>         0.1254
      9 C8         -0.9907    2.3462   -1.3192 C.3       1 <0>        -0.0830
     10 C9         -0.6195    1.7760   -2.6638 C.2       1 <0>         0.1274
     11 N1          0.4391    1.0671   -2.7883 N.2       1 <0>        -0.2329
     12 N2          0.8517    0.6411   -4.0576 N.pl3     1 <0>        -0.5498
     13 C10         1.9067   -0.1887   -4.1800 C.2       1 <0>         0.5977
     14 S1          2.4877   -0.6111   -5.7340 S.2       1 <0>        -0.5938
     15 N3          2.5043   -0.6859   -3.0790 N.pl3     1 <0>        -0.7743
     16 C11        -1.4945    2.0404   -3.8620 C.3       1 <0>        -0.1573
     17 C12        -1.0215    3.3126   -4.5681 C.3       1 <0>         0.0006
     18 C13        -3.3411    3.6597   -5.2214 C.3       1 <0>        -0.0143
     19 C14        -4.0509    4.4835   -6.3251 C.3       1 <0>        -0.1468
     20 C15        -2.9974    5.5551   -6.6881 C.3       1 <0>        -0.1464
     21 C16        -1.6494    4.9629   -6.2369 C.3       1 <0>        -0.0112
     22 C17        -0.2942    2.5121    1.0550 C.3       1 <0>        -0.1552
     23 C18         0.6977    3.2227    1.6771 C.2       1 <0>         0.3670
     24 C19         0.3455    3.8712    2.9624 C.2       1 <0>        -0.2684
     25 C20         1.2965    4.1547    3.8306 C.2       1 <0>         0.0146
     26 C21         1.0182    4.7489    5.1825 C.3       1 <0>        -0.1169
     27 C22        -0.3219    5.4872    5.1501 C.3       1 <0>        -0.1179
     28 C23        -1.4003    4.5300    4.6401 C.3       1 <0>        -0.1171
     29 C24        -1.1157    4.1366    3.2016 C.3       1 <0>         0.1452
     30 H2         -1.4213    4.9535    2.5478 H         1 <0>         0.0872
     31 O1         -1.8479    2.9611    2.8409 O.3       1 <0>        -0.3320
     32 C25        -1.5688    2.4126    1.6397 C.2       1 <0>         0.5077
     33 O2         -2.4467    1.8144    1.0449 O.2       1 <0>        -0.4416
     34 O3          1.9354    3.3308    1.1432 O.2       1 <0>        -0.4929
     35 H3         -0.6412   -3.4558    0.3100 H         1 <0>         0.1232
     36 H4         -2.5506   -2.0560   -0.3669 H         1 <0>         0.1217
     37 H5         -2.2630    0.3753   -0.6292 H         1 <0>         0.1281
     38 H6          1.8454    0.0062    0.4546 H         1 <0>         0.1221
     39 H7          1.5557   -2.4240    0.7250 H         1 <0>         0.1247
     40 H8         -2.0044    2.0392   -1.0616 H         1 <0>         0.1257
     41 H9         -0.9397    3.4343   -1.3593 H         1 <0>         0.0961
     42 H10         0.3781    0.9434   -4.8483 H         1 <0>         0.4087
     43 H11         2.1314   -0.5062   -2.2018 H         1 <0>         0.4104
     44 H12         3.3072   -1.2234   -3.1639 H         1 <0>         0.4366
     45 H13        -1.4317    1.1979   -4.5507 H         1 <0>         0.1031
     46 H14        -2.5270    2.1678   -3.5368 H         1 <0>         0.1239
     47 H15        -1.0194    4.1416   -3.8604 H         1 <0>         0.1387
     48 H16        -0.0131    3.1610   -4.9531 H         1 <0>         0.1313
     49 H17        -3.7554    2.6530   -5.1664 H         1 <0>         0.1393
     50 H18        -3.4182    4.1618   -4.2571 H         1 <0>         0.1359
     51 H19        -4.9566    4.9491   -5.9366 H         1 <0>         0.1174
     52 H20        -4.2775    3.8575   -7.1882 H         1 <0>         0.0999
     53 H21        -3.2012    6.4826   -6.1530 H         1 <0>         0.1039
     54 H22        -2.9921    5.7314   -7.7637 H         1 <0>         0.1066
     55 H23        -1.2033    5.5967   -5.4704 H         1 <0>         0.1314
     56 H24        -0.9767    4.8784   -7.0904 H         1 <0>         0.1363
     57 H25         2.3214    3.9504    3.5581 H         1 <0>         0.1365
     58 H26         1.8124    5.4490    5.4420 H         1 <0>         0.0996
     59 H27         0.9771    3.9540    5.9271 H         1 <0>         0.1048
     60 H28        -0.2500    6.3456    4.4824 H         1 <0>         0.0739
     61 H29        -0.5791    5.8257    6.1538 H         1 <0>         0.0918
     62 H30        -2.3727    5.0194    4.6950 H         1 <0>         0.0916
     63 H31        -1.4104    3.6360    5.2636 H         1 <0>         0.0893
     64 H32        -0.6257    3.4401    0.8846 H         1 <0>         0.1259
     65 N4         -1.9480    3.6369   -5.6942 N.4       1 <0>        -0.3947
     66 H33        -1.8432    2.9292   -6.4308 H         1 <0>         0.4328
@<TRIPOS>BOND
     1    1    6 ar
     2    1    2 ar
     3    1   35 1
     4    2    3 ar
     5    2   36 1
     6    3    4 ar
     7    3   37 1
     8    4    5 ar
     9    4    7 1
    10    5    6 ar
    11    5   38 1
    12    6   39 1
    13    7    8 1
    14    7    9 1
    15    7   22 1
    16    9   10 1
    17    9   40 1
    18    9   41 1
    19   10   11 2
    20   10   16 1
    21   11   12 1
    22   12   13 1
    23   12   42 1
    24   13   14 2
    25   13   15 1
    26   15   43 1
    27   15   44 1
    28   16   17 1
    29   16   45 1
    30   16   46 1
    31   17   47 1
    32   17   48 1
    33   17   65 1
    34   18   19 1
    35   18   49 1
    36   18   50 1
    37   18   65 1
    38   19   20 1
    39   19   51 1
    40   19   52 1
    41   20   21 1
    42   20   53 1
    43   20   54 1
    44   21   55 1
    45   21   56 1
    46   21   65 1
    47   22   32 1
    48   22   64 1
    49   22   23 1
    50   23   24 1
    51   23   34 2
    52   24   29 1
    53   24   25 2
    54   25   26 1
    55   25   57 1
    56   26   27 1
    57   26   58 1
    58   26   59 1
    59   27   28 1
    60   27   60 1
    61   27   61 1
    62   28   29 1
    63   28   62 1
    64   28   63 1
    65   29   30 1
    66   29   31 1
    67   31   32 1
    68   32   33 2
    69   65   66 1
@<TRIPOS>MOLECULE
ZINC39479189
   56    59     0     0     0
SMALL
USER_CHARGES

@<TRIPOS>ATOM
      1 C1         -0.0173    1.4248    0.0099 C.3       1 <0>         0.0225
      2 O1          0.0021   -0.0041    0.0020 O.3       1 <0>        -0.3082
      3 C2          0.6058   -0.6071   -1.0557 C.ar      1 <0>         0.1739
      4 C3          1.1730    0.1611   -2.0625 C.ar      1 <0>        -0.2176
      5 C4          1.7863   -0.4528   -3.1372 C.ar      1 <0>        -0.0129
      6 C5          1.8360   -1.8325   -3.2113 C.ar      1 <0>        -0.1703
      7 C6          1.2711   -2.6023   -2.2085 C.ar      1 <0>         0.1401
      8 C7          0.6607   -1.9908   -1.1274 C.ar      1 <0>        -0.1896
      9 F1          1.3202   -3.9503   -2.2829 F         1 <0>        -0.1374
     10 C8          2.5054   -2.4994   -4.3853 C.3       1 <0>         0.1401
     11 H1          3.0159   -3.4092   -4.0694 H         1 <0>         0.0847
     12 C9          1.4717   -2.8105   -5.5012 C.3       1 <0>        -0.1350
     13 H2          0.7006   -2.0418   -5.5520 H         1 <0>         0.1238
     14 C10         2.3969   -2.7643   -6.7470 C.3       1 <0>         0.1005
     15 N1          3.3831   -1.7238   -6.4012 N.pl3     1 <0>        -0.4908
     16 N2          3.4513   -1.5718   -5.0428 N.3       1 <0>        -0.4393
     17 C11         4.1410   -1.0010   -7.3253 C.ar      1 <0>         0.2286
     18 C12         3.9896   -1.2367   -8.6859 C.ar      1 <0>        -0.1908
     19 C13         4.7402   -0.5199   -9.5970 C.ar      1 <0>        -0.0720
     20 C14         5.6420    0.4312   -9.1562 C.ar      1 <0>        -0.1627
     21 C15         5.7952    0.6684   -7.8024 C.ar      1 <0>        -0.0704
     22 C16         5.0436   -0.0408   -6.8862 C.ar      1 <0>        -0.1757
     23 C17         0.8554   -4.1986   -5.3165 C.3       1 <0>        -0.0021
     24 N3         -0.1987   -4.4037   -6.3189 N.4       1 <0>        -0.5059
     25 C18        -0.7904   -5.7365   -6.1416 C.3       1 <0>         0.0122
     26 C19        -1.8883   -5.9501   -7.1856 C.3       1 <0>        -0.1920
     27 S1         -2.6190   -7.5959   -6.9666 S.3       1 <0>         0.0582
     28 C20        -3.8485   -7.6874   -8.2255 C.2       1 <0>         0.0110
     29 C21        -4.6820   -8.7324   -8.4722 C.2       1 <0>        -0.0220
     30 N4         -5.4673   -8.4227   -9.5035 N.2       1 <0>        -0.2123
     31 N5         -5.1864   -7.2418   -9.9319 N.2       1 <0>        -0.0348
     32 N6         -4.1532   -6.7216   -9.1381 N.pl3     1 <0>        -0.4740
     33 H3          1.0053    1.8021    0.0021 H         1 <0>         0.0634
     34 H4         -0.5445    1.7859   -0.8732 H         1 <0>         0.0616
     35 H5         -0.5275    1.7763    0.9067 H         1 <0>         0.1101
     36 H6          1.1346    1.2390   -2.0061 H         1 <0>         0.1412
     37 H7          2.2273    0.1456   -3.9207 H         1 <0>         0.1517
     38 H8          0.2242   -2.5907   -0.3425 H         1 <0>         0.1490
     39 H9          2.8888   -3.7255   -6.8962 H         1 <0>         0.0714
     40 H10         1.8323   -2.4786   -7.6346 H         1 <0>         0.0901
     41 H11         4.3917   -1.7158   -4.7065 H         1 <0>         0.3444
     42 H12         3.2860   -1.9799   -9.0308 H         1 <0>         0.1147
     43 H13         4.6230   -0.7027  -10.6549 H         1 <0>         0.1258
     44 H14         6.2282    0.9899   -9.8708 H         1 <0>         0.1247
     45 H15         6.5004    1.4120   -7.4615 H         1 <0>         0.1273
     46 H16         5.1605    0.1481   -5.8293 H         1 <0>         0.1259
     47 H17         1.6273   -4.9582   -5.4404 H         1 <0>         0.1431
     48 H18         0.4267   -4.2758   -4.3174 H         1 <0>         0.1463
     49 H19        -0.9132   -3.7005   -6.2043 H         1 <0>         0.4323
     50 H20        -0.0185   -6.4961   -6.2654 H         1 <0>         0.1496
     51 H21        -1.2192   -5.8137   -5.1424 H         1 <0>         0.1504
     52 H22        -2.6602   -5.1905   -7.0617 H         1 <0>         0.1156
     53 H23        -1.4596   -5.8729   -8.1847 H         1 <0>         0.1152
     54 H24        -4.7041   -9.6619   -7.9226 H         1 <0>         0.1983
     55 H25         0.1982   -4.3322   -7.2438 H         1 <0>         0.4290
     56 H26        -3.7370   -5.8496   -9.2231 H         1 <0>         0.4391
@<TRIPOS>BOND
     1    1    2 1
     2    1   33 1
     3    1   34 1
     4    1   35 1
     5    2    3 1
     6    3    8 ar
     7    3    4 ar
     8    4    5 ar
     9    4   36 1
    10    5    6 ar
    11    5   37 1
    12    6    7 ar
    13    6   10 1
    14    7    8 ar
    15    7    9 1
    16    8   38 1
    17   10   11 1
    18   10   16 1
    19   10   12 1
    20   12   13 1
    21   12   14 1
    22   12   23 1
    23   14   15 1
    24   14   39 1
    25   14   40 1
    26   15   16 1
    27   15   17 1
    28   16   41 1
    29   17   22 ar
    30   17   18 ar
    31   18   19 ar
    32   18   42 1
    33   19   20 ar
    34   19   43 1
    35   20   21 ar
    36   20   44 1
    37   21   22 ar
    38   21   45 1
    39   22   46 1
    40   23   24 1
    41   23   47 1
    42   23   48 1
    43   24   25 1
    44   24   49 1
    45   24   55 1
    46   25   26 1
    47   25   50 1
    48   25   51 1
    49   26   52 1
    50   26   53 1
    51   26   27 1
    52   27   28 1
    53   28   32 1
    54   28   29 2
    55   29   30 1
    56   29   54 1
    57   30   31 2
    58   31   32 1
    59   32   56 1
@<TRIPOS>MOLECULE
ZINC40799388
   55    59     0     0     0
SMALL
USER_CHARGES

@<TRIPOS>ATOM
      1 C1          0.0017    1.4874   -0.0490 C.ar      1 <0>        -0.0818
      2 C2          1.1782    2.2137   -0.0684 C.ar      1 <0>        -0.1004
      3 C3          2.3976    1.5573   -0.0909 C.ar      1 <0>         0.0727
      4 C4          2.4350    0.1647   -0.0936 C.ar      1 <0>         0.0405
      5 C5          1.2526   -0.5562   -0.0743 C.ar      1 <0>        -0.0796
      6 C6          0.0387    0.1058   -0.0517 C.ar      1 <0>        -0.1561
      7 C7         -1.2465   -0.6808   -0.0305 C.3       1 <0>         0.0508
      8 N1         -1.6881   -0.9344   -1.4084 N.4       1 <0>        -0.3798
      9 C8         -2.0122    0.3413   -2.0593 C.3       1 <0>        -0.0290
     10 C9         -2.3626    0.0889   -3.5294 C.3       1 <0>         0.1246
     11 N2         -3.4384   -0.9128   -3.5872 N.pl3     1 <0>        -0.6538
     12 C10        -3.2660   -2.1598   -2.8260 C.3       1 <0>         0.1230
     13 C11        -2.8731   -1.8013   -1.3890 C.3       1 <0>        -0.0226
     14 C12        -4.5851   -0.6873   -4.3391 C.ar      1 <0>         0.3465
     15 C13        -4.6091   -0.9869   -5.7028 C.ar      1 <0>         0.0867
     16 C14        -5.7866   -0.7414   -6.4108 C.ar      1 <0>         0.3796
     17 N3         -6.8342   -0.2348   -5.7641 N.ar      1 <0>        -0.5226
     18 C15        -6.7695    0.0338   -4.4760 C.ar      1 <0>         0.2999
     19 N4         -5.6791   -0.1876   -3.7697 N.ar      1 <0>        -0.5208
     20 N5         -5.8642   -1.0212   -7.7705 N.pl3     1 <0>        -0.6446
     21 C16        -7.0032   -0.6561   -8.4959 C.ar      1 <0>         0.1607
     22 C17        -7.8049    0.3872   -8.0532 C.ar      1 <0>        -0.1429
     23 C18        -8.9304    0.7462   -8.7731 C.ar      1 <0>         0.1194
     24 C19        -9.2575    0.0658   -9.9342 C.ar      1 <0>        -0.1449
     25 C20        -8.4608   -0.9737  -10.3776 C.ar      1 <0>        -0.0958
     26 C21        -7.3316   -1.3338   -9.6652 C.ar      1 <0>         0.0494
     27 F1         -6.5507   -2.3460  -10.1022 F         1 <0>        -0.1352
     28 F2         -9.7115    1.7610   -8.3428 F         1 <0>        -0.1281
     29 N6         -3.4795   -1.5201   -6.3442 N.pl3     1 <0>        -0.8602
     30 O1          3.7395   -0.2365   -0.1173 O.3       1 <0>        -0.3004
     31 C22         4.4890    0.9175   -0.5412 C.3       1 <0>         0.2111
     32 O2          3.6787    2.0280   -0.1129 O.3       1 <0>        -0.2978
     33 H1         -0.9482    2.0009   -0.0273 H         1 <0>         0.1476
     34 H2          1.1463    3.2932   -0.0663 H         1 <0>         0.1501
     35 H3          1.2785   -1.6359   -0.0762 H         1 <0>         0.1443
     36 H4         -1.0829   -1.6303    0.4792 H         1 <0>         0.1404
     37 H5         -2.0119   -0.1121    0.4975 H         1 <0>         0.1408
     38 H6         -2.8636    0.7998   -1.5563 H         1 <0>         0.1365
     39 H7         -1.1523    1.0084   -1.9999 H         1 <0>         0.1380
     40 H8         -2.7013    1.0171   -3.9898 H         1 <0>         0.1150
     41 H9         -1.4848   -0.2855   -4.0561 H         1 <0>         0.0818
     42 H10        -4.2020   -2.7183   -2.8212 H         1 <0>         0.1164
     43 H11        -2.4795   -2.7613   -3.2816 H         1 <0>         0.0828
     44 H12        -2.6475   -2.7130   -0.8357 H         1 <0>         0.1390
     45 H13        -3.6984   -1.2779   -0.9063 H         1 <0>         0.1372
     46 H14        -7.6382    0.4443   -3.9827 H         1 <0>         0.2037
     47 H15        -5.1285   -1.4697   -8.2161 H         1 <0>         0.4212
     48 H16        -7.5505    0.9178   -7.1475 H         1 <0>         0.1695
     49 H17       -10.1368    0.3476  -10.4944 H         1 <0>         0.1498
     50 H18        -8.7185   -1.5023  -11.2834 H         1 <0>         0.1527
     51 H19        -2.6929   -1.7533   -5.8267 H         1 <0>         0.4038
     52 H20        -3.4858   -1.6553   -7.3047 H         1 <0>         0.3997
     53 H21         5.4627    0.9427   -0.0519 H         1 <0>         0.1445
     54 H22         4.6037    0.9227   -1.6252 H         1 <0>         0.0964
     55 H23        -0.9472   -1.3910   -1.9191 H         1 <0>         0.4203
@<TRIPOS>BOND
     1    1    6 ar
     2    1    2 ar
     3    1   33 1
     4    2    3 ar
     5    2   34 1
     6    3   32 1
     7    3    4 ar
     8    4    5 ar
     9    4   30 1
    10    5    6 ar
    11    5   35 1
    12    6    7 1
    13    7    8 1
    14    7   36 1
    15    7   37 1
    16    8   13 1
    17    8    9 1
    18    8   55 1
    19    9   10 1
    20    9   38 1
    21    9   39 1
    22   10   11 1
    23   10   40 1
    24   10   41 1
    25   11   12 1
    26   11   14 1
    27   12   13 1
    28   12   42 1
    29   12   43 1
    30   13   44 1
    31   13   45 1
    32   14   19 ar
    33   14   15 ar
    34   15   16 ar
    35   15   29 1
    36   16   17 ar
    37   16   20 1
    38   17   18 ar
    39   18   19 ar
    40   18   46 1
    41   20   21 1
    42   20   47 1
    43   21   26 ar
    44   21   22 ar
    45   22   23 ar
    46   22   48 1
    47   23   24 ar
    48   23   28 1
    49   24   25 ar
    50   24   49 1
    51   25   26 ar
    52   25   50 1
    53   26   27 1
    54   29   51 1
    55   29   52 1
    56   30   31 1
    57   31   32 1
    58   31   53 1
    59   31   54 1
@<TRIPOS>MOLECULE
ZINC63633443
   61    65     0     0     0
SMALL
USER_CHARGES

@<TRIPOS>ATOM
      1 C1         -0.0187    1.5258    0.0104 C.3       1 <0>        -0.1484
      2 C2          0.0021   -0.0041    0.0020 C.3       1 <0>         0.0963
      3 H1          0.5117   -0.3592   -0.8937 H         1 <0>         0.0560
      4 C3         -1.4344   -0.5400    0.0256 C.3       1 <0>        -0.1323
      5 C4         -1.3758   -2.0395    0.1554 C.2       1 <0>         0.5262
      6 O1         -2.3074   -2.7061   -0.2429 O.2       1 <0>        -0.5294
      7 N1         -0.3172   -2.6532    0.7007 N.am      1 <0>        -0.6367
      8 C5         -0.3135   -4.1237    0.8034 C.3       1 <0>         0.3855
      9 H2         -1.3317   -4.4975    0.6956 H         1 <0>         0.1255
     10 N2          0.2158   -4.5234    2.1043 N.2       1 <0>        -0.6622
     11 C6          0.8635   -3.7253    2.8879 C.2       1 <0>         0.6549
     12 N3          1.0862   -2.4036    2.5858 N.pl3     1 <0>        -0.7652
     13 C7          0.8582   -1.9430    1.2053 C.3       1 <0>         0.5662
     14 H3          1.7229   -2.2004    0.5936 H         1 <0>         0.0653
     15 N4          0.6999   -0.4949    1.1945 N.3       1 <0>        -0.7072
     16 N5          1.3501   -4.2200    4.0748 N.pl3     1 <0>        -0.7299
     17 C8          1.1300   -5.6246    4.4281 C.3       1 <0>         0.1569
     18 C9          1.7680   -5.9144    5.7882 C.3       1 <0>        -0.1049
     19 C10         1.5416   -7.3593    6.1516 C.2       1 <0>         0.0590
     20 C11         2.3894   -8.3920    5.9443 C.ar      1 <0>        -0.1275
     21 C12         3.7239   -8.4788    5.3416 C.ar      1 <0>        -0.0930
     22 C13         4.3460   -9.6799    5.2681 C.ar      1 <0>         0.1035
     23 C14         3.7569  -10.8611    5.7521 C.ar      1 <0>        -0.0265
     24 C15         2.5332  -10.8824    6.3223 C.ar      1 <0>        -0.1566
     25 C16         1.7698   -9.6373    6.4539 C.ar      1 <0>         0.3143
     26 N6          0.5869   -9.3841    6.9558 N.pl3     1 <0>        -0.5698
     27 C17         0.3228   -7.9464    6.8280 C.3       1 <0>         0.0598
     28 O2          5.5821   -9.7454    4.7067 O.3       1 <0>        -0.3021
     29 C18         6.2014  -11.0320    4.6497 C.3       1 <0>         0.0148
     30 C19         0.5509   -4.7006   -0.2879 C.ar      1 <0>        -0.1050
     31 C20         0.6835   -4.0322   -1.4906 C.ar      1 <0>        -0.1050
     32 C21         1.4764   -4.5614   -2.4917 C.ar      1 <0>        -0.1198
     33 C22         2.1371   -5.7588   -2.2898 C.ar      1 <0>        -0.1147
     34 C23         2.0052   -6.4267   -1.0868 C.ar      1 <0>        -0.1255
     35 C24         1.2157   -5.8953   -0.0841 C.ar      1 <0>        -0.0867
     36 H4          1.0039    1.9031    0.0027 H         1 <0>         0.0634
     37 H5         -0.5459    1.8868   -0.8726 H         1 <0>         0.0743
     38 H6         -0.5289    1.8773    0.9072 H         1 <0>         0.0712
     39 H7         -1.9703   -0.1181    0.8758 H         1 <0>         0.1121
     40 H8         -1.9425   -0.2708   -0.9004 H         1 <0>         0.1121
     41 H9          1.3884   -1.7851    3.2692 H         1 <0>         0.4040
     42 H10         1.8391   -3.6390    4.6782 H         1 <0>         0.4068
     43 H11         0.0594   -5.8229    4.4794 H         1 <0>         0.0753
     44 H12         1.5822   -6.2649    3.6708 H         1 <0>         0.0778
     45 H13         2.8386   -5.7161    5.7369 H         1 <0>         0.1144
     46 H14         1.3157   -5.2740    6.5455 H         1 <0>         0.1154
     47 H15         4.2068   -7.5917    4.9590 H         1 <0>         0.1643
     48 H16         4.3045  -11.7878    5.6640 H         1 <0>         0.1670
     49 H17         2.1181  -11.8131    6.6801 H         1 <0>         0.1694
     50 H18         0.1869   -7.4981    7.8122 H         1 <0>         0.1777
     51 H19        -0.5629   -7.7825    6.2142 H         1 <0>         0.1785
     52 H20         6.3174  -11.4244    5.6600 H         1 <0>         0.0643
     53 H21         5.5784  -11.7096    4.0660 H         1 <0>         0.0647
     54 H22         7.1809  -10.9432    4.1797 H         1 <0>         0.1167
     55 H23         0.1674   -3.0967   -1.6483 H         1 <0>         0.1118
     56 H24         1.5795   -4.0395   -3.4316 H         1 <0>         0.1230
     57 H25         2.7560   -6.1726   -3.0722 H         1 <0>         0.1229
     58 H26         2.5211   -7.3623   -0.9292 H         1 <0>         0.1211
     59 H27         1.1156   -6.4153    0.8571 H         1 <0>         0.1283
     60 H28        -0.0125  -10.0370    7.3497 H         1 <0>         0.4571
     61 H29         1.5894   -0.0326    1.3089 H         1 <0>         0.3706
@<TRIPOS>BOND
     1    1    2 1
     2    1   36 1
     3    1   37 1
     4    1   38 1
     5    2    3 1
     6    2   15 1
     7    2    4 1
     8    4    5 1
     9    4   39 1
    10    4   40 1
    11    5    6 2
    12    5    7 am
    13    7   13 1
    14    7    8 1
    15    8    9 1
    16    8   10 1
    17    8   30 1
    18   10   11 2
    19   11   12 1
    20   11   16 1
    21   12   13 1
    22   12   41 1
    23   13   14 1
    24   13   15 1
    25   15   61 1
    26   16   17 1
    27   16   42 1
    28   17   18 1
    29   17   43 1
    30   17   44 1
    31   18   19 1
    32   18   45 1
    33   18   46 1
    34   19   27 1
    35   19   20 2
    36   20   25 ar
    37   20   21 ar
    38   21   22 ar
    39   21   47 1
    40   22   23 ar
    41   22   28 1
    42   23   24 ar
    43   23   48 1
    44   24   25 ar
    45   24   49 1
    46   25   26 2
    47   26   27 1
    48   26   60 1
    49   27   50 1
    50   27   51 1
    51   28   29 1
    52   29   52 1
    53   29   53 1
    54   29   54 1
    55   30   35 ar
    56   30   31 ar
    57   31   32 ar
    58   31   55 1
    59   32   33 ar
    60   32   56 1
    61   33   34 ar
    62   33   57 1
    63   34   35 ar
    64   34   58 1
    65   35   59 1
@<TRIPOS>MOLECULE
ZINC08793187
   48    51     0     0     0
SMALL
USER_CHARGES
4-ethyl-8-(5-nitrobenzothiophen-2-yl)carbonylamino-7-thia-4-azabicyclo[4.3.0]nona-8,10-diene-9-carboxamide
@<TRIPOS>ATOM
      1 C1         -8.1824   -6.0693   -1.2049 C.3       1 <0>        -0.1900
      2 C2         -8.1020   -5.6799    0.2725 C.3       1 <0>        -0.0044
      3 C3         -7.8714   -3.3595   -0.3813 C.3       1 <0>        -0.0002
      4 C4         -7.2691   -2.0221    0.0588 C.3       1 <0>        -0.0902
      5 C5         -5.7510   -2.1580    0.0469 C.2       1 <0>        -0.0397
      6 C6         -5.1796   -3.3838    0.0355 C.2       1 <0>        -0.3142
      7 S1         -3.4391   -3.0701    0.0129 S.3       1 <0>         0.3340
      8 C7         -3.4669   -1.3372    0.0296 C.2       1 <0>         0.1000
      9 C8         -4.8242   -1.0420    0.0445 C.2       1 <0>        -0.2313
     10 C9         -5.3017    0.3440    0.0568 C.2       1 <0>         0.5741
     11 O1         -5.5098    0.9253   -0.9921 O.2       1 <0>        -0.5189
     12 N1         -5.5102    0.9745    1.2296 N.am      1 <0>        -0.8441
     13 N2         -2.3954   -0.4594    0.0234 N.am      1 <0>        -0.6130
     14 C10        -1.1345   -0.9353    0.0086 C.2       1 <0>         0.6118
     15 O2         -0.9374   -2.1357    0.0006 O.2       1 <0>        -0.4740
     16 C11         0.0021   -0.0041    0.0020 C.2       1 <0>        -0.2211
     17 C12         1.3315   -0.2897   -0.0122 C.2       1 <0>        -0.0150
     18 C13         2.2736    0.7545   -0.0156 C.ar      1 <0>        -0.1141
     19 C14         3.6894    0.6603   -0.0301 C.ar      1 <0>         0.0152
     20 C15         4.4598    1.7783   -0.0318 C.ar      1 <0>        -0.0414
     21 C16         3.8991    3.0499   -0.0196 C.ar      1 <0>        -0.0209
     22 C17         2.5260    3.1873   -0.0053 C.ar      1 <0>        -0.0722
     23 C18         1.7305    2.0612   -0.0034 C.ar      1 <0>        -0.0647
     24 S2         -0.0221    1.7802    0.0118 S.3       1 <0>         0.1215
     25 N3          5.9334    1.6394   -0.0475 N.pl3     1 <0>         0.0214
     26 O3          6.6387    2.6324   -0.0497 O.2       1 <0>        -0.1398
     27 O4          6.4406    0.5321   -0.0583 O.3       1 <0>        -0.1499
     28 C19        -5.8957   -4.6980    0.0374 C.3       1 <0>         0.1042
     29 H1         -8.6502   -5.2621   -1.7685 H         1 <0>         0.0812
     30 H2         -7.1778   -6.2461   -1.5892 H         1 <0>         0.0802
     31 H3         -8.7764   -6.9772   -1.3096 H         1 <0>         0.1073
     32 H4         -7.6343   -6.4871    0.8361 H         1 <0>         0.1324
     33 H5         -9.1066   -5.5031    0.6568 H         1 <0>         0.1325
     34 H6         -7.6514   -3.5251   -1.4360 H         1 <0>         0.1357
     35 H7         -8.9515   -3.3321   -0.2374 H         1 <0>         0.1385
     36 H8         -7.6089   -1.7796    1.0657 H         1 <0>         0.1071
     37 H9         -7.5735   -1.2360   -0.6322 H         1 <0>         0.1251
     38 H10        -5.3444    0.5112    2.0656 H         1 <0>         0.4046
     39 H11        -5.8262    1.8916    1.2378 H         1 <0>         0.4111
     40 H12        -2.5526    0.4977    0.0298 H         1 <0>         0.4268
     41 H13         1.6636   -1.3174   -0.0205 H         1 <0>         0.1635
     42 H14         4.1596   -0.3119   -0.0394 H         1 <0>         0.1665
     43 H15         4.5332    3.9241   -0.0216 H         1 <0>         0.1735
     44 H16         2.0778    4.1698    0.0046 H         1 <0>         0.1641
     45 H17        -5.8523   -5.1419   -0.9572 H         1 <0>         0.1457
     46 H18        -5.4316   -5.3686    0.7606 H         1 <0>         0.1431
     47 N4         -7.3014   -4.4478    0.4392 N.4       1 <0>        -0.3942
     48 H19        -7.3220   -4.1677    1.4268 H         1 <0>         0.4324
@<TRIPOS>BOND
     1    1    2 1
     2    1   29 1
     3    1   30 1
     4    1   31 1
     5    2   32 1
     6    2   33 1
     7    2   47 1
     8    3    4 1
     9    3   34 1
    10    3   35 1
    11    3   47 1
    12    4    5 1
    13    4   36 1
    14    4   37 1
    15    5    9 1
    16    5    6 2
    17    6    7 1
    18    6   28 1
    19    7    8 1
    20    8    9 2
    21    8   13 1
    22    9   10 1
    23   10   11 2
    24   10   12 am
    25   12   38 1
    26   12   39 1
    27   13   14 am
    28   13   40 1
    29   14   15 2
    30   14   16 1
    31   16   24 1
    32   16   17 2
    33   17   18 1
    34   17   41 1
    35   18   23 ar
    36   18   19 ar
    37   19   20 ar
    38   19   42 1
    39   20   21 ar
    40   20   25 1
    41   21   22 ar
    42   21   43 1
    43   22   23 ar
    44   22   44 1
    45   23   24 1
    46   25   26 2
    47   25   27 1
    48   28   45 1
    49   28   46 1
    50   28   47 1
    51   47   48 1
@<TRIPOS>MOLECULE
ZINC09109462
   57    60     0     0     0
SMALL
USER_CHARGES
5-[(1S)-6,7-dimethoxy-1,2,3,4-tetrahydroisoquinolin-1-yl]-3-(2,4-dimethylphenyl)-2,6-dihydroxy-pyrimidin-4-one
@<TRIPOS>ATOM
      1 C1          2.6790   -1.9701   -8.7534 C.3       1 <0>        -0.1259
      2 C2          2.8487   -2.1774   -7.2704 C.ar      1 <0>        -0.0461
      3 C3          1.7358   -2.2630   -6.4538 C.ar      1 <0>        -0.1140
      4 C4          1.8880   -2.4525   -5.0944 C.ar      1 <0>        -0.0765
      5 C5          3.1601   -2.5571   -4.5475 C.ar      1 <0>         0.0679
      6 C6          4.2754   -2.4655   -5.3691 C.ar      1 <0>        -0.0487
      7 C7          4.1165   -2.2812   -6.7289 C.ar      1 <0>        -0.1127
      8 C8          5.6579   -2.5723   -4.7788 C.3       1 <0>        -0.1176
      9 N1          3.3179   -2.7489   -3.1685 N.am      1 <0>        -0.4594
     10 C9          3.4153   -1.6829   -2.3466 C.2       1 <0>         0.5704
     11 O1          3.3670   -0.5477   -2.7931 O.2       1 <0>        -0.5089
     12 C10         3.5780   -1.9022   -0.9731 C.2       1 <0>        -0.4248
     13 C11         3.6215   -3.2050   -0.5085 C.2       1 <0>         0.4818
     14 N2          3.5139   -4.2217   -1.3708 N.2       1 <0>        -0.6347
     15 C12         3.3668   -4.0097   -2.6591 C.2       1 <0>         0.6607
     16 O2          3.2625   -5.0639   -3.4942 O.3       1 <0>        -0.4286
     17 O3          3.7718   -3.4496    0.8141 O.3       1 <0>        -0.4351
     18 C13         3.6974   -0.7420   -0.0188 C.3       1 <0>         0.1944
     19 H1          3.8914   -1.1209    0.9847 H         1 <0>         0.1535
     20 C14         2.4064    0.0343   -0.0161 C.ar      1 <0>        -0.1072
     21 C15         1.2125   -0.6732   -0.0110 C.ar      1 <0>        -0.1430
     22 C16         0.0021   -0.0041    0.0020 C.ar      1 <0>         0.1117
     23 C17        -0.0168    1.3878    0.0097 C.ar      1 <0>         0.1295
     24 C18         1.1757    2.0888    0.0021 C.ar      1 <0>        -0.1670
     25 C19         2.3870    1.4128   -0.0128 C.ar      1 <0>        -0.0756
     26 C20         3.6589    2.2216   -0.0302 C.3       1 <0>        -0.1021
     27 C21         4.8421    1.3423    0.3753 C.3       1 <0>         0.0023
     28 O4         -1.2017    2.0551    0.0189 O.3       1 <0>        -0.2982
     29 C22        -1.1422    3.4828    0.0264 C.3       1 <0>         0.0219
     30 O5         -1.1646   -0.7029    0.0068 O.3       1 <0>        -0.2968
     31 C23        -1.0669   -2.1285   -0.0016 C.3       1 <0>         0.0260
     32 H2          2.6622   -0.9023   -8.9714 H         1 <0>         0.0809
     33 H3          3.5102   -2.4360   -9.2828 H         1 <0>         0.0748
     34 H4          1.7420   -2.4221   -9.0786 H         1 <0>         0.0752
     35 H5          0.7466   -2.1819   -6.8797 H         1 <0>         0.1375
     36 H6          1.0185   -2.5189   -4.4572 H         1 <0>         0.1260
     37 H7          4.9837   -2.2136   -7.3690 H         1 <0>         0.1374
     38 H8          5.9721   -3.6160   -4.7758 H         1 <0>         0.0793
     39 H9          6.3546   -1.9848   -5.3767 H         1 <0>         0.0825
     40 H10         5.6468   -2.1933   -3.7568 H         1 <0>         0.0512
     41 H11         3.3018   -5.9445   -3.0966 H         1 <0>         0.4522
     42 H12         3.7906   -4.3895    1.0406 H         1 <0>         0.4304
     43 H13         1.2286   -1.7531   -0.0168 H         1 <0>         0.1347
     44 H14         1.1636    3.1687    0.0074 H         1 <0>         0.1456
     45 H15         3.8257    2.6122   -1.0341 H         1 <0>         0.1033
     46 H16         3.5697    3.0515    0.6708 H         1 <0>         0.1209
     47 H17         5.7746    1.8772    0.1952 H         1 <0>         0.1389
     48 H18         4.7622    1.0851    1.4315 H         1 <0>         0.1336
     49 H19        -0.6095    3.8196    0.9157 H         1 <0>         0.0599
     50 H20        -0.6179    3.8293   -0.8642 H         1 <0>         0.0591
     51 H21        -2.1538    3.8886    0.0334 H         1 <0>         0.1093
     52 H22        -0.5229   -2.4607    0.8826 H         1 <0>         0.0574
     53 H23        -2.0673   -2.5613    0.0035 H         1 <0>         0.1096
     54 H24        -0.5360   -2.4511   -0.8972 H         1 <0>         0.0492
     55 N3          4.8151    0.1138   -0.4402 N.4       1 <0>        -0.5148
     56 H25         4.6981    0.3641   -1.4290 H         1 <0>         0.4371
     57 H26         5.6984   -0.3953   -0.3181 H         1 <0>         0.4312
@<TRIPOS>BOND
     1    1    2 1
     2    1   32 1
     3    1   33 1
     4    1   34 1
     5    2    7 ar
     6    2    3 ar
     7    3    4 ar
     8    3   35 1
     9    4    5 ar
    10    4   36 1
    11    5    6 ar
    12    5    9 1
    13    6    7 ar
    14    6    8 1
    15    7   37 1
    16    8   38 1
    17    8   39 1
    18    8   40 1
    19    9   15 1
    20    9   10 am
    21   10   11 2
    22   10   12 1
    23   12   13 2
    24   12   18 1
    25   13   14 1
    26   13   17 1
    27   14   15 2
    28   15   16 1
    29   16   41 1
    30   17   42 1
    31   18   19 1
    32   18   20 1
    33   18   55 1
    34   20   25 ar
    35   20   21 ar
    36   21   22 ar
    37   21   43 1
    38   22   23 ar
    39   22   30 1
    40   23   24 ar
    41   23   28 1
    42   24   25 ar
    43   24   44 1
    44   25   26 1
    45   26   27 1
    46   26   45 1
    47   26   46 1
    48   27   47 1
    49   27   48 1
    50   27   55 1
    51   28   29 1
    52   29   49 1
    53   29   50 1
    54   29   51 1
    55   30   31 1
    56   31   52 1
    57   31   53 1
    58   31   54 1
    59   55   56 1
    60   55   57 1
@<TRIPOS>MOLECULE
ZINC40703161
   55    58     0     0     0
SMALL
USER_CHARGES

@<TRIPOS>ATOM
      1 C1          4.5131   -2.0159    1.5873 C.3       1 <0>        -0.1157
      2 C2          3.3266   -2.9289    1.4145 C.ar      1 <0>        -0.1083
      3 C3          3.2545   -3.7692    0.3208 C.ar      1 <0>        -0.0877
      4 C4          2.1654   -4.6077    0.1615 C.ar      1 <0>        -0.0483
      5 C5          1.1455   -4.6070    1.0972 C.ar      1 <0>        -0.0920
      6 C6          1.2126   -3.7693    2.1928 C.ar      1 <0>        -0.1078
      7 C7          2.3074   -2.9301    2.3580 C.ar      1 <0>         0.1608
      8 N1          2.3805   -2.0847    3.4691 N.pl3     1 <0>        -0.6462
      9 C8          1.2147   -1.6500    4.0898 C.ar      1 <0>         0.3821
     10 C9          1.2744   -0.9177    5.2770 C.ar      1 <0>         0.0828
     11 C10         0.0739   -0.5054    5.8581 C.ar      1 <0>         0.3439
     12 N2         -1.0732   -0.8236    5.2628 N.ar      1 <0>        -0.5250
     13 C11        -1.0853   -1.5167    4.1422 C.ar      1 <0>         0.2994
     14 N3          0.0248   -1.9207    3.5584 N.ar      1 <0>        -0.5216
     15 N4          0.0766    0.2256    7.0401 N.pl3     1 <0>        -0.6533
     16 C12         0.2151    1.6900    7.0234 C.3       1 <0>         0.1238
     17 C13        -0.9031    2.2934    7.8798 C.3       1 <0>        -0.0229
     18 N5         -0.8675    1.6965    9.2209 N.4       1 <0>        -0.3781
     19 C14        -1.1648    0.2610    9.1374 C.3       1 <0>        -0.0277
     20 C15        -0.0653   -0.4426    8.3430 C.3       1 <0>         0.1248
     21 C16        -1.8673    2.3530   10.0738 C.3       1 <0>         0.0447
     22 C17        -1.7491    1.8282   11.4815 C.ar      1 <0>        -0.1614
     23 C18        -2.4774    0.7190   11.8691 C.ar      1 <0>        -0.0977
     24 C19        -2.3689    0.2376   13.1604 C.ar      1 <0>        -0.1131
     25 C20        -1.5318    0.8651   14.0639 C.ar      1 <0>        -0.0840
     26 C21        -0.8029    1.9737   13.6761 C.ar      1 <0>        -0.1129
     27 C22        -0.9081    2.4526   12.3836 C.ar      1 <0>        -0.0938
     28 N6          2.5080   -0.6050    5.8704 N.pl3     1 <0>        -0.8614
     29 Cl1         2.0778   -5.6622   -1.2147 Cl        1 <0>        -0.0645
     30 H1          5.2878   -2.5305    2.1558 H         1 <0>         0.0748
     31 H2          4.9042   -1.7392    0.6082 H         1 <0>         0.0782
     32 H3          4.2056   -1.1177    2.1228 H         1 <0>         0.0609
     33 H4          4.0488   -3.7716   -0.4111 H         1 <0>         0.1381
     34 H5          0.2963   -5.2619    0.9700 H         1 <0>         0.1374
     35 H6          0.4165   -3.7691    2.9226 H         1 <0>         0.1513
     36 H7          3.2445   -1.8014    3.8070 H         1 <0>         0.4158
     37 H8         -2.0341   -1.7578    3.6862 H         1 <0>         0.2017
     38 H9          1.1842    1.9710    7.4356 H         1 <0>         0.0823
     39 H10         0.1296    2.0544    5.9997 H         1 <0>         0.1153
     40 H11        -0.7599    3.3712    7.9578 H         1 <0>         0.1380
     41 H12        -1.8677    2.0875    7.4158 H         1 <0>         0.1354
     42 H13        -1.2144   -0.1590   10.1420 H         1 <0>         0.1377
     43 H14        -2.1214    0.1165    8.6353 H         1 <0>         0.1347
     44 H15        -0.3360   -1.4875    8.1912 H         1 <0>         0.1149
     45 H16         0.8751   -0.3806    8.8906 H         1 <0>         0.0809
     46 H17        -1.6961    3.4294   10.0718 H         1 <0>         0.1370
     47 H18        -2.8659    2.1432    9.6905 H         1 <0>         0.1353
     48 H19        -3.1313    0.2287   11.1632 H         1 <0>         0.1312
     49 H20        -2.9384   -0.6286   13.4634 H         1 <0>         0.1363
     50 H21        -1.4476    0.4894   15.0730 H         1 <0>         0.1359
     51 H22        -0.1491    2.4642   14.3821 H         1 <0>         0.1360
     52 H23        -0.3357    3.3165   12.0795 H         1 <0>         0.1309
     53 H24         3.3353   -0.8265    5.4150 H         1 <0>         0.3983
     54 H25         2.5328   -0.1674    6.7358 H         1 <0>         0.4031
     55 H26         0.0496    1.8261    9.6212 H         1 <0>         0.4197
@<TRIPOS>BOND
     1    1    2 1
     2    1   30 1
     3    1   31 1
     4    1   32 1
     5    2    7 ar
     6    2    3 ar
     7    3    4 ar
     8    3   33 1
     9    4    5 ar
    10    4   29 1
    11    5    6 ar
    12    5   34 1
    13    6    7 ar
    14    6   35 1
    15    7    8 1
    16    8    9 1
    17    8   36 1
    18    9   14 ar
    19    9   10 ar
    20   10   11 ar
    21   10   28 1
    22   11   12 ar
    23   11   15 1
    24   12   13 ar
    25   13   14 ar
    26   13   37 1
    27   15   20 1
    28   15   16 1
    29   16   17 1
    30   16   38 1
    31   16   39 1
    32   17   18 1
    33   17   40 1
    34   17   41 1
    35   18   19 1
    36   18   21 1
    37   18   55 1
    38   19   20 1
    39   19   42 1
    40   19   43 1
    41   20   44 1
    42   20   45 1
    43   21   22 1
    44   21   46 1
    45   21   47 1
    46   22   27 ar
    47   22   23 ar
    48   23   24 ar
    49   23   48 1
    50   24   25 ar
    51   24   49 1
    52   25   26 ar
    53   25   50 1
    54   26   27 ar
    55   26   51 1
    56   27   52 1
    57   28   53 1
    58   28   54 1
@<TRIPOS>MOLECULE
ZINC39695778
   68    72     0     0     0
SMALL
USER_CHARGES

@<TRIPOS>ATOM
      1 C1          5.8627   -1.6425    7.5537 C.3       1 <0>        -0.1188
      2 C2          5.3457   -2.4624    6.3998 C.ar      1 <0>        -0.0549
      3 C3          6.1940   -2.7874    5.3507 C.ar      1 <0>        -0.1212
      4 C4          5.7447   -3.5296    4.2956 C.ar      1 <0>        -0.0608
      5 C5          4.4183   -3.9688    4.2679 C.ar      1 <0>         0.0389
      6 C6          3.5592   -3.6404    5.3301 C.ar      1 <0>         0.0595
      7 C7          4.0349   -2.8892    6.3963 C.ar      1 <0>        -0.1168
      8 N1          2.3381   -4.2056    5.0212 N.pl3     1 <0>        -0.5905
      9 C8          2.4766   -4.8398    3.8257 C.2       1 <0>         0.2631
     10 N2          3.6929   -4.7017    3.3846 N.2       1 <0>        -0.4851
     11 C9          1.3811   -5.5929    3.1159 C.3       1 <0>         0.2285
     12 H1          0.7427   -6.0836    3.8506 H         1 <0>         0.1105
     13 C10         0.5459   -4.6161    2.2858 C.3       1 <0>        -0.1654
     14 N3          1.9741   -6.6008    2.2334 N.am      1 <0>        -0.7118
     15 C11         1.2678   -7.6967    1.8918 C.2       1 <0>         0.5253
     16 O1          0.1414   -7.8484    2.3150 O.2       1 <0>        -0.5201
     17 C12         1.8777   -8.7335    0.9840 C.3       1 <0>        -0.1116
     18 H2          2.5975   -8.2699    0.3094 H         1 <0>         0.1161
     19 C13         0.7760   -9.4588    0.1792 C.3       1 <0>         0.1111
     20 N4          1.2326  -10.8667    0.1044 N.am      1 <0>        -0.6138
     21 C14         1.8118  -11.1379    1.4420 C.3       1 <0>         0.1091
     22 C15         2.5545   -9.8387    1.8120 C.3       1 <0>        -0.0712
     23 C16         2.4020   -9.5507    3.3025 C.3       1 <0>        -0.1481
     24 C17         3.1329  -10.6316    4.1040 C.3       1 <0>        -0.0070
     25 N5          4.5524  -10.6448    3.7304 N.4       1 <0>        -0.5048
     26 C18         4.6946  -11.0140    2.3168 C.3       1 <0>        -0.0107
     27 C19         4.0299   -9.9493    1.4397 C.3       1 <0>        -0.1360
     28 C20         1.1421  -11.7099   -0.9430 C.2       1 <0>         0.6000
     29 O2          1.5662  -12.8454   -0.8478 O.2       1 <0>        -0.5067
     30 C21         0.5283  -11.2551   -2.2053 C.ar      1 <0>        -0.2011
     31 C22         1.3186  -10.6722   -3.2020 C.ar      1 <0>         0.1532
     32 C23         0.7356  -10.2494   -4.3815 C.ar      1 <0>        -0.1544
     33 C24        -0.6252  -10.4012   -4.5782 C.ar      1 <0>        -0.0410
     34 C25        -1.4138  -10.9758   -3.5984 C.ar      1 <0>        -0.1208
     35 C26        -0.8461  -11.4095   -2.4148 C.ar      1 <0>         0.1609
     36 F1         -1.6173  -11.9762   -1.4612 F         1 <0>        -0.1178
     37 C27        -2.8953  -11.1349   -3.8237 C.3       1 <0>        -0.1198
     38 F2          2.6478  -10.5227   -3.0117 F         1 <0>        -0.1242
     39 H3          6.2664   -2.3058    8.3186 H         1 <0>         0.0758
     40 H4          6.6481   -0.9739    7.2013 H         1 <0>         0.0739
     41 H5          5.0476   -1.0548    7.9758 H         1 <0>         0.0700
     42 H6          7.2197   -2.4498    5.3684 H         1 <0>         0.1338
     43 H7          6.4132   -3.7763    3.4840 H         1 <0>         0.1309
     44 H8          3.3801   -2.6370    7.2172 H         1 <0>         0.1265
     45 H9         -0.2465   -5.1608    1.7724 H         1 <0>         0.0799
     46 H10         0.1047   -3.8662    2.9424 H         1 <0>         0.0730
     47 H11         1.1843   -4.1254    1.5511 H         1 <0>         0.0713
     48 H12         2.8750   -6.4794    1.8950 H         1 <0>         0.4148
     49 H13        -0.1791   -9.3962    0.7006 H         1 <0>         0.1047
     50 H14         0.6928   -9.0327   -0.8206 H         1 <0>         0.0921
     51 H15         1.0218  -11.3445    2.1639 H         1 <0>         0.0892
     52 H16         2.5103  -11.9732    1.3917 H         1 <0>         0.0919
     53 H17         2.8320   -8.5754    3.5305 H         1 <0>         0.0979
     54 H18         1.3447   -9.5538    3.5674 H         1 <0>         0.1264
     55 H19         3.0397  -10.4192    5.1690 H         1 <0>         0.1384
     56 H20         2.6916  -11.6046    3.8881 H         1 <0>         0.1340
     57 H21         4.9463   -9.7277    3.8784 H         1 <0>         0.4284
     58 H22         5.7527  -11.0836    2.0644 H         1 <0>         0.1409
     59 H23         4.2161  -11.9779    2.1434 H         1 <0>         0.1341
     60 H24         4.1203  -10.2333    0.3913 H         1 <0>         0.1196
     61 H25         4.5187   -8.9884    1.6004 H         1 <0>         0.0998
     62 H26         1.3440   -9.7990   -5.1517 H         1 <0>         0.1546
     63 H27        -1.0744  -10.0686   -5.5024 H         1 <0>         0.1546
     64 H28        -3.0902  -12.1002   -4.2909 H         1 <0>         0.0838
     65 H29        -3.4160  -11.0824   -2.8675 H         1 <0>         0.0755
     66 H30        -3.2514  -10.3372   -4.4756 H         1 <0>         0.0823
     67 H31         5.0433  -11.3152    4.3028 H         1 <0>         0.4341
     68 H32         1.5311   -4.1594    5.5574 H         1 <0>         0.4261
@<TRIPOS>BOND
     1    1    2 1
     2    1   39 1
     3    1   40 1
     4    1   41 1
     5    2    7 ar
     6    2    3 ar
     7    3    4 ar
     8    3   42 1
     9    4    5 ar
    10    4   43 1
    11    5   10 1
    12    5    6 ar
    13    6    7 ar
    14    6    8 1
    15    7   44 1
    16    8    9 1
    17    8   68 1
    18    9   10 2
    19    9   11 1
    20   11   12 1
    21   11   13 1
    22   11   14 1
    23   13   45 1
    24   13   46 1
    25   13   47 1
    26   14   15 am
    27   14   48 1
    28   15   16 2
    29   15   17 1
    30   17   18 1
    31   17   22 1
    32   17   19 1
    33   19   20 1
    34   19   49 1
    35   19   50 1
    36   20   21 1
    37   20   28 am
    38   21   22 1
    39   21   51 1
    40   21   52 1
    41   22   27 1
    42   22   23 1
    43   23   24 1
    44   23   53 1
    45   23   54 1
    46   24   25 1
    47   24   55 1
    48   24   56 1
    49   25   26 1
    50   25   57 1
    51   25   67 1
    52   26   27 1
    53   26   58 1
    54   26   59 1
    55   27   60 1
    56   27   61 1
    57   28   29 2
    58   28   30 1
    59   30   35 ar
    60   30   31 ar
    61   31   32 ar
    62   31   38 1
    63   32   33 ar
    64   32   62 1
    65   33   34 ar
    66   33   63 1
    67   34   35 ar
    68   34   37 1
    69   35   36 1
    70   37   64 1
    71   37   65 1
    72   37   66 1
@<TRIPOS>MOLECULE
ZINC63684299
   53    57     0     0     0
SMALL
USER_CHARGES

@<TRIPOS>ATOM
      1 C1         -0.0167    1.3781    0.0096 C.ar      1 <0>        -0.1166
      2 C2          1.1709    2.0855    0.0021 C.ar      1 <0>        -0.1164
      3 C3          2.3773    1.4107   -0.0130 C.ar      1 <0>        -0.1056
      4 C4          2.3960    0.0285   -0.0201 C.ar      1 <0>        -0.0877
      5 C5          1.2084   -0.6789   -0.0117 C.ar      1 <0>        -0.1148
      6 C6          0.0021   -0.0041    0.0020 C.ar      1 <0>        -0.1208
      7 C7          3.7112   -0.7071   -0.0376 C.3       1 <0>        -0.0835
      8 C8          4.1714   -0.9633    1.3989 C.3       1 <0>         0.1009
      9 N1          5.4498   -1.6784    1.3820 N.am      1 <0>        -0.5073
     10 C9          5.4623   -3.0261    1.3695 C.2       1 <0>         0.5667
     11 O1          4.4150   -3.6496    1.3720 O.2       1 <0>        -0.5733
     12 C10         6.6923   -3.7079    1.3533 C.2       1 <0>        -0.5401
     13 C11         7.8495   -2.9868    1.3504 C.2       1 <0>         0.5170
     14 N2          7.7910   -1.6166    1.3634 N.pl3     1 <0>        -0.5991
     15 C12         6.6029   -0.9849    1.3733 C.2       1 <0>         0.5254
     16 S1          6.5577    0.7264    1.3823 S.2       1 <0>        -0.5198
     17 O2          9.0434   -3.6166    1.3354 O.3       1 <0>        -0.6224
     18 C13         6.7307   -5.2144    1.3397 C.3       1 <0>         0.1740
     19 H1          7.7614   -5.5544    1.2386 H         1 <0>         0.1605
     20 C14         6.1342   -5.7569    2.6402 C.3       1 <0>         0.0786
     21 H2          5.1361   -5.3493    2.8004 H         1 <0>         0.1900
     22 C15         6.0735   -7.2719    2.4798 C.2       1 <0>         0.0038
     23 C16         6.7009   -7.7856    3.5280 C.ar      1 <0>        -0.1218
     24 C17         6.8924   -9.1748    3.9749 C.ar      1 <0>        -0.0158
     25 C18         7.6166   -9.3447    5.1125 C.ar      1 <0>        -0.1429
     26 C19         8.1628   -8.2845    5.8424 C.ar      1 <0>         0.0565
     27 C20         8.0307   -6.9759    5.5092 C.ar      1 <0>        -0.1996
     28 C21         7.2854   -6.6698    4.3338 C.ar      1 <0>         0.3363
     29 N3          6.9830   -5.5014    3.8024 N.pl3     1 <0>        -0.5508
     30 C22         5.4724   -7.9106    1.2511 C.3       1 <0>        -0.0947
     31 C23         6.0763   -7.1679    0.0449 C.3       1 <0>        -0.0129
     32 N4          5.9295   -5.7203    0.2145 N.4       1 <0>        -0.5071
     33 H3         -0.9591    1.9053    0.0259 H         1 <0>         0.1235
     34 H4          1.1563    3.1654    0.0076 H         1 <0>         0.1252
     35 H5          3.3051    1.9634   -0.0196 H         1 <0>         0.1280
     36 H6          1.2231   -1.7588   -0.0176 H         1 <0>         0.1182
     37 H7         -0.9258   -0.5567    0.0082 H         1 <0>         0.1222
     38 H8          3.5884   -1.6586   -0.5549 H         1 <0>         0.0707
     39 H9          4.4573   -0.1052   -0.5563 H         1 <0>         0.0853
     40 H10         4.2941   -0.0118    1.9163 H         1 <0>         0.1236
     41 H11         3.4252   -1.5652    1.9176 H         1 <0>         0.1039
     42 H12         6.4807  -10.0116    3.4302 H         1 <0>         0.1736
     43 H13         7.7781  -10.3505    5.4714 H         1 <0>         0.1596
     44 H14         8.7276   -8.5233    6.7315 H         1 <0>         0.1629
     45 H15         8.4733   -6.1963    6.1115 H         1 <0>         0.1733
     46 H16         5.7359   -8.9675    1.2109 H         1 <0>         0.1483
     47 H17         4.3888   -7.7931    1.2594 H         1 <0>         0.1401
     48 H18         7.1345   -7.4156   -0.0386 H         1 <0>         0.1399
     49 H19         5.5624   -7.4787   -0.8647 H         1 <0>         0.1581
     50 H20         4.9576   -5.5069    0.3814 H         1 <0>         0.4342
     51 H21         7.2702   -4.6291    4.1148 H         1 <0>         0.4633
     52 H22         6.2248   -5.2585   -0.6326 H         1 <0>         0.4440
     53 H23         8.6116   -1.0994    1.3617 H         1 <0>         0.4452
@<TRIPOS>BOND
     1    1    6 ar
     2    1    2 ar
     3    1   33 1
     4    2    3 ar
     5    2   34 1
     6    3    4 ar
     7    3   35 1
     8    4    5 ar
     9    4    7 1
    10    5    6 ar
    11    5   36 1
    12    6   37 1
    13    7    8 1
    14    7   38 1
    15    7   39 1
    16    8   40 1
    17    8   41 1
    18    8    9 1
    19    9   15 1
    20    9   10 am
    21   10   11 2
    22   10   12 1
    23   12   18 1
    24   12   13 2
    25   13   17 1
    26   13   14 1
    27   14   15 1
    28   14   53 1
    29   15   16 2
    30   18   19 1
    31   18   32 1
    32   18   20 1
    33   20   21 1
    34   20   29 1
    35   20   22 1
    36   22   23 2
    37   22   30 1
    38   23   28 ar
    39   23   24 ar
    40   24   25 ar
    41   24   42 1
    42   25   26 ar
    43   25   43 1
    44   26   27 ar
    45   26   44 1
    46   27   28 ar
    47   27   45 1
    48   28   29 2
    49   29   51 1
    50   30   31 1
    51   30   46 1
    52   30   47 1
    53   31   32 1
    54   31   48 1
    55   31   49 1
    56   32   50 1
    57   32   52 1
@<TRIPOS>MOLECULE
ZINC04706512
   62    63     0     0     0
SMALL
USER_CHARGES
2-[[8-[(2-hydroxyphenyl)methylamino]-3,6-bis-sulfanyl-octyl]aminomethyl]phenol
@<TRIPOS>ATOM
      1 C1         -0.9502    3.1661    5.4421 C.ar      1 <0>        -0.1215
      2 C2         -2.0928    2.5226    5.8813 C.ar      1 <0>        -0.0641
      3 C3         -2.5662    1.4151    5.2051 C.ar      1 <0>        -0.1393
      4 C4         -1.8944    0.9484    4.0843 C.ar      1 <0>         0.1292
      5 C5         -0.7486    1.5956    3.6459 C.ar      1 <0>        -0.1970
      6 C6         -0.2761    2.6999    4.3288 C.ar      1 <0>        -0.0737
      7 C7         -0.0162    1.0911    2.4293 C.3       1 <0>         0.0593
      8 C8         -0.0127    1.0858    0.0080 C.3       1 <0>        -0.0119
      9 C9         -0.7527    1.5927   -1.2315 C.3       1 <0>        -0.1493
     10 C10        -0.0366    1.0992   -2.4903 C.3       1 <0>        -0.0389
     11 H1          1.0101    1.4016   -2.4550 H         1 <0>         0.1313
     12 C11        -0.7016    1.7071   -3.7268 C.3       1 <0>        -0.1252
     13 C12         0.0893    1.3145   -4.9763 C.3       1 <0>        -0.1251
     14 C13        -0.5758    1.9224   -6.2129 C.3       1 <0>        -0.0389
     15 H2         -0.6726    3.0000   -6.0806 H         1 <0>         0.1313
     16 C14         0.2822    1.6351   -7.4466 C.3       1 <0>        -0.1493
     17 C15        -0.3163    2.3475   -8.6612 C.3       1 <0>        -0.0120
     18 C16        -0.0383    2.7411  -11.0340 C.3       1 <0>         0.0593
     19 C17         0.8312    2.4357  -12.2264 C.ar      1 <0>        -0.1970
     20 C18         1.7573    3.3636  -12.6626 C.ar      1 <0>        -0.0737
     21 C19         2.5585    3.0821  -13.7535 C.ar      1 <0>        -0.1215
     22 C20         2.4280    1.8759  -14.4173 C.ar      1 <0>        -0.0641
     23 C21         1.5000    0.9471  -13.9883 C.ar      1 <0>        -0.1392
     24 C22         0.6984    1.2252  -12.8905 C.ar      1 <0>         0.1292
     25 O1         -0.2158    0.3131  -12.4668 O.3       1 <0>        -0.5065
     26 S1         -2.2205    1.1905   -6.4363 S.3       1 <0>        -0.2258
     27 S2         -0.1408   -0.7098   -2.5755 S.3       1 <0>        -0.2258
     28 O2         -2.3580   -0.1413    3.4176 O.3       1 <0>        -0.5065
     29 H3         -0.5816    4.0318    5.9722 H         1 <0>         0.1411
     30 H4         -2.6151    2.8860    6.7539 H         1 <0>         0.1425
     31 H5         -3.4584    0.9127    5.5487 H         1 <0>         0.1430
     32 H6          0.6183    3.2017    3.9902 H         1 <0>         0.1380
     33 H7         -0.0015    0.0013    2.4401 H         1 <0>         0.1354
     34 H8          1.0064    1.4684    2.4383 H         1 <0>         0.1380
     35 H9          0.0021   -0.0041    0.0020 H         1 <0>         0.1441
     36 H10         1.0099    1.4631    0.0003 H         1 <0>         0.1355
     37 H11        -1.7753    1.2154   -1.2238 H         1 <0>         0.0883
     38 H12        -0.7675    2.6825   -1.2255 H         1 <0>         0.1033
     39 H13        -1.7224    1.3341   -3.8108 H         1 <0>         0.0861
     40 H14        -0.7182    2.7930   -3.6337 H         1 <0>         0.0866
     41 H15         1.1100    1.6876   -4.8924 H         1 <0>         0.0866
     42 H16         0.1058    0.2286   -5.0695 H         1 <0>         0.0861
     43 H17         1.2962    1.9970   -7.2763 H         1 <0>         0.1033
     44 H18         0.3058    0.5610   -7.6306 H         1 <0>         0.0883
     45 H19        -1.3303    1.9856   -8.8315 H         1 <0>         0.1440
     46 H20        -0.3400    3.4216   -8.4772 H         1 <0>         0.1356
     47 H21        -1.0503    2.3820  -11.2208 H         1 <0>         0.1354
     48 H22        -0.0600    3.8180  -10.8665 H         1 <0>         0.1380
     49 H23         1.8583    4.3080  -12.1484 H         1 <0>         0.1380
     50 H24         3.2847    3.8070  -14.0904 H         1 <0>         0.1411
     51 H25         3.0520    1.6601  -15.2719 H         1 <0>         0.1425
     52 H26         1.3983    0.0055  -14.5073 H         1 <0>         0.1430
     53 H27        -1.0859    0.4083  -12.8777 H         1 <0>         0.4063
     54 H28        -1.9742   -0.1231   -6.5875 H         1 <0>         0.0973
     55 H29        -1.4621   -0.9581   -2.6139 H         1 <0>         0.0973
     56 H30        -1.9999   -0.9803    3.7382 H         1 <0>         0.4063
     57 N1         -0.7091    1.5657    1.2166 N.4       1 <0>        -0.5170
     58 H31        -0.7230    2.5923    1.2143 H         1 <0>         0.4298
     59 H32        -1.6724    1.2103    1.2160 H         1 <0>         0.4351
     60 N2          0.5163    2.0655   -9.8458 N.4       1 <0>        -0.5170
     61 H33         0.5377    1.0524  -10.0113 H         1 <0>         0.4351
     62 H34         1.4706    2.4051   -9.6776 H         1 <0>         0.4298
@<TRIPOS>BOND
     1    1    6 ar
     2    1    2 ar
     3    1   29 1
     4    2    3 ar
     5    2   30 1
     6    3    4 ar
     7    3   31 1
     8    4    5 ar
     9    4   28 1
    10    5    6 ar
    11    5    7 1
    12    6   32 1
    13    7   33 1
    14    7   34 1
    15    7   57 1
    16    8    9 1
    17    8   35 1
    18    8   36 1
    19    8   57 1
    20    9   10 1
    21    9   37 1
    22    9   38 1
    23   10   11 1
    24   10   12 1
    25   10   27 1
    26   12   13 1
    27   12   39 1
    28   12   40 1
    29   13   14 1
    30   13   41 1
    31   13   42 1
    32   14   15 1
    33   14   16 1
    34   14   26 1
    35   16   17 1
    36   16   43 1
    37   16   44 1
    38   17   45 1
    39   17   46 1
    40   17   60 1
    41   18   19 1
    42   18   47 1
    43   18   48 1
    44   18   60 1
    45   19   24 ar
    46   19   20 ar
    47   20   21 ar
    48   20   49 1
    49   21   22 ar
    50   21   50 1
    51   22   23 ar
    52   22   51 1
    53   23   24 ar
    54   23   52 1
    55   24   25 1
    56   25   53 1
    57   26   54 1
    58   27   55 1
    59   28   56 1
    60   57   58 1
    61   57   59 1
    62   60   61 1
    63   60   62 1
@<TRIPOS>MOLECULE
ZINC16185860
   68    70     0     0     0
SMALL
USER_CHARGES
1-[(1R,2S)-2-methylcyclohexyl]-3-[[4-[[[(1R,2S)-2-methylcyclohexyl]carbamothioylamino]carbamoyl]phenyl]amino]thiourea
@<TRIPOS>ATOM
      1 C1         -3.9224   14.2396   -1.9489 C.3       1 <0>        -0.1501
      2 C2         -3.7968   14.7435   -0.5097 C.3       1 <0>        -0.1020
      3 H1         -3.8116   15.8334   -0.5038 H         1 <0>         0.0972
      4 C3         -4.9674   14.2130    0.3204 C.3       1 <0>        -0.1164
      5 C4         -4.8418   14.7169    1.7596 C.3       1 <0>        -0.1237
      6 C5         -3.5248   14.2215    2.3603 C.3       1 <0>        -0.1200
      7 C6         -2.3541   14.7519    1.5301 C.3       1 <0>        -0.1327
      8 C7         -2.4798   14.2481    0.0910 C.3       1 <0>         0.1501
      9 H2         -1.6458   14.6260   -0.5004 H         1 <0>         0.1198
     10 N1         -2.4599   12.7832    0.0830 N.pl3     1 <0>        -0.6700
     11 C8         -1.2837   12.1253    0.0738 C.2       1 <0>         0.5603
     12 S1          0.1872   13.0013    0.0715 S.2       1 <0>        -0.5922
     13 N2         -1.2654   10.7776    0.0664 N.pl3     1 <0>        -0.4755
     14 N3         -2.4691   10.0607    0.0683 N.pl3     1 <0>        -0.5549
     15 C9         -2.4502    8.6704    0.0607 C.ar      1 <0>         0.2453
     16 C10        -3.6471    7.9594    0.0626 C.ar      1 <0>        -0.1868
     17 C11        -3.6318    6.5834    0.0551 C.ar      1 <0>         0.0070
     18 C12        -2.4126    5.8995    0.0456 C.ar      1 <0>        -0.1836
     19 C13        -1.2124    6.6163    0.0495 C.ar      1 <0>        -0.0281
     20 C14        -1.2344    7.9922    0.0508 C.ar      1 <0>        -0.1965
     21 C15        -2.3926    4.4245    0.0374 C.2       1 <0>         0.5735
     22 O1         -3.4373    3.8023    0.0390 O.2       1 <0>        -0.5188
     23 N4         -1.2164    3.7665    0.0283 N.am      1 <0>        -0.5488
     24 N5         -1.1974    2.3657    0.0206 N.pl3     1 <0>        -0.4697
     25 C16        -0.0211    1.7077    0.0114 C.2       1 <0>         0.5615
     26 S2          0.0021   -0.0041    0.0020 S.2       1 <0>        -0.5865
     27 N6          1.1368    2.3974    0.0041 N.pl3     1 <0>        -0.6786
     28 C17         2.4152    1.6823   -0.0120 C.3       1 <0>         0.1482
     29 H3          2.3157    0.7734   -0.6054 H         1 <0>         0.1204
     30 C18         2.8127    1.3159    1.4194 C.3       1 <0>        -0.1294
     31 C19         4.1479    0.5690    1.4026 C.3       1 <0>        -0.1150
     32 C20         5.2253    1.4643    0.7875 C.3       1 <0>        -0.1241
     33 C21         4.8279    1.8307   -0.6439 C.3       1 <0>        -0.1102
     34 C22         3.4927    2.5776   -0.6271 C.3       1 <0>        -0.0991
     35 H4          3.5922    3.4865   -0.0337 H         1 <0>         0.0743
     36 C23         3.0953    2.9440   -2.0584 C.3       1 <0>        -0.1509
     37 H5         -3.9076   13.1497   -1.9548 H         1 <0>         0.0473
     38 H6         -4.8607   14.5926   -2.3768 H         1 <0>         0.0625
     39 H7         -3.0884   14.6175   -2.5403 H         1 <0>         0.0628
     40 H8         -5.9057   14.5660   -0.1076 H         1 <0>         0.0722
     41 H9         -4.9527   13.1232    0.3144 H         1 <0>         0.0501
     42 H10        -4.8566   15.8068    1.7655 H         1 <0>         0.0690
     43 H11        -5.6758   14.3390    2.3509 H         1 <0>         0.0643
     44 H12        -3.4353   14.5805    3.3855 H         1 <0>         0.0673
     45 H13        -3.5100   13.1316    2.3543 H         1 <0>         0.0526
     46 H14        -1.4158   14.3990    1.9581 H         1 <0>         0.0833
     47 H15        -2.3689   15.8418    1.5361 H         1 <0>         0.0817
     48 H16        -3.2933   12.2868    0.0843 H         1 <0>         0.3904
     49 H17        -0.4188   10.3041    0.0599 H         1 <0>         0.4496
     50 H18        -3.3156   10.5343    0.0749 H         1 <0>         0.4246
     51 H19        -4.5887    8.4884    0.0703 H         1 <0>         0.1387
     52 H20        -4.5607    6.0325    0.0561 H         1 <0>         0.1477
     53 H21        -0.2689    6.0907    0.0471 H         1 <0>         0.1260
     54 H22        -0.3075    8.5466    0.0494 H         1 <0>         0.1294
     55 H23        -0.3830    4.2629    0.0270 H         1 <0>         0.4173
     56 H24        -2.0307    1.8693    0.0218 H         1 <0>         0.4593
     57 H25         1.1236    3.3673    0.0094 H         1 <0>         0.3881
     58 H26         2.9122    2.2248    2.0128 H         1 <0>         0.0595
     59 H27         2.0450    0.6781    1.8576 H         1 <0>         0.0823
     60 H28         4.0484   -0.3399    0.8092 H         1 <0>         0.0703
     61 H29         4.4310    0.3080    2.4223 H         1 <0>         0.0677
     62 H30         6.1766    0.9322    0.7755 H         1 <0>         0.0671
     63 H31         5.3249    2.3732    1.3809 H         1 <0>         0.0618
     64 H32         4.7284    0.9218   -1.2373 H         1 <0>         0.0701
     65 H33         5.5956    2.4685   -1.0821 H         1 <0>         0.0702
     66 H34         2.1441    3.4761   -2.0465 H         1 <0>         0.0479
     67 H35         3.8629    3.5818   -2.4967 H         1 <0>         0.0622
     68 H36         2.9958    2.0351   -2.6519 H         1 <0>         0.0625
@<TRIPOS>BOND
     1    1    2 1
     2    1   37 1
     3    1   38 1
     4    1   39 1
     5    2    3 1
     6    2    8 1
     7    2    4 1
     8    4    5 1
     9    4   40 1
    10    4   41 1
    11    5    6 1
    12    5   42 1
    13    5   43 1
    14    6    7 1
    15    6   44 1
    16    6   45 1
    17    7    8 1
    18    7   46 1
    19    7   47 1
    20    8    9 1
    21    8   10 1
    22   10   11 1
    23   10   48 1
    24   11   12 2
    25   11   13 1
    26   13   14 1
    27   13   49 1
    28   14   15 1
    29   14   50 1
    30   15   20 ar
    31   15   16 ar
    32   16   17 ar
    33   16   51 1
    34   17   18 ar
    35   17   52 1
    36   18   19 ar
    37   18   21 1
    38   19   20 ar
    39   19   53 1
    40   20   54 1
    41   21   22 2
    42   21   23 am
    43   23   24 1
    44   23   55 1
    45   24   25 1
    46   24   56 1
    47   25   26 2
    48   25   27 1
    49   27   28 1
    50   27   57 1
    51   28   29 1
    52   28   34 1
    53   28   30 1
    54   30   31 1
    55   30   58 1
    56   30   59 1
    57   31   32 1
    58   31   60 1
    59   31   61 1
    60   32   33 1
    61   32   62 1
    62   32   63 1
    63   33   34 1
    64   33   64 1
    65   33   65 1
    66   34   35 1
    67   34   36 1
    68   36   66 1
    69   36   67 1
    70   36   68 1
@<TRIPOS>MOLECULE
ZINC03830997
   62    63     0     0     0
SMALL
USER_CHARGES

@<TRIPOS>ATOM
      1 C1         -0.6216    1.3563    0.1972 C.3       1 <0>        -0.1583
      2 C2         -0.4841   -0.1669    0.1548 C.3       1 <0>        -0.1248
      3 C3         -1.8731   -0.8060    0.2097 C.3       1 <0>        -0.1110
      4 C4         -1.7356   -2.3293    0.1673 C.3       1 <0>        -0.1050
      5 H1         -1.0681   -2.6810    0.9540 H         1 <0>         0.1115
      6 C5         -1.2502   -2.8049   -1.2273 C.3       1 <0>        -0.1294
      7 C6         -1.8050   -4.2421   -1.3170 C.3       1 <0>        -0.0017
      8 H2         -2.1476   -4.4446   -2.3317 H         1 <0>         0.1641
      9 N1         -2.9380   -4.3324   -0.3777 N.4       1 <0>        -0.3798
     10 C7         -3.1212   -3.0145    0.2679 C.3       1 <0>        -0.0068
     11 C8         -4.1582   -4.6992   -1.1087 C.3       1 <0>        -0.0450
     12 C9         -0.7345   -5.2299   -0.9308 C.2       1 <0>         0.5212
     13 O1         -0.8962   -5.9556    0.0274 O.2       1 <0>        -0.5095
     14 N2          0.4026   -5.3070   -1.6502 N.am      1 <0>        -0.6926
     15 C10         1.4432   -6.2673   -1.2747 C.3       1 <0>         0.1317
     16 H3          0.9784   -7.1738   -0.8869 H         1 <0>         0.1212
     17 C11         2.2864   -6.6123   -2.5039 C.3       1 <0>         0.0910
     18 H4          2.7169   -5.7001   -2.9171 H         1 <0>         0.0801
     19 C12         1.4014   -7.2822   -3.5583 C.3       1 <0>         0.0959
     20 H5          0.6269   -6.5858   -3.8796 H         1 <0>         0.0622
     21 C13         2.2640   -7.6787   -4.7605 C.3       1 <0>         0.0799
     22 H6          2.6876   -6.7837   -5.2163 H         1 <0>         0.0768
     23 C14         3.3950   -8.5950   -4.2834 C.3       1 <0>         0.0695
     24 H7          4.0461   -8.8375   -5.1232 H         1 <0>         0.0766
     25 C15         4.2029   -7.8744   -3.2010 C.3       1 <0>         0.0804
     26 H8          4.6587   -6.9788   -3.6233 H         1 <0>         0.0850
     27 O2          3.3356   -7.5061   -2.1266 O.3       1 <0>        -0.3380
     28 S1          5.5012   -8.9783   -2.5795 S.3       1 <0>        -0.1939
     29 C16         6.4492   -7.9395   -1.4337 C.3       1 <0>        -0.1226
     30 O3          2.8407   -9.7976   -3.7462 O.3       1 <0>        -0.5201
     31 O4          1.4597   -8.3686   -5.7192 O.3       1 <0>        -0.5492
     32 O5          0.7932   -8.4486   -3.0001 O.3       1 <0>        -0.5267
     33 C17         2.3395   -5.6529   -0.1976 C.3       1 <0>         0.0931
     34 H9          3.1720   -6.3254    0.0093 H         1 <0>         0.0794
     35 C18         2.8798   -4.3087   -0.6895 C.3       1 <0>        -0.1485
     36 O6          1.5805   -5.4531    0.9966 O.3       1 <0>        -0.5575
     37 H10         0.3680    1.8117    0.1581 H         1 <0>         0.0609
     38 H11        -1.2099    1.6919   -0.6568 H         1 <0>         0.0566
     39 H12        -1.1207    1.6506    1.1205 H         1 <0>         0.0582
     40 H13         0.0151   -0.4611   -0.7684 H         1 <0>         0.0633
     41 H14         0.1043   -0.5025    1.0088 H         1 <0>         0.0675
     42 H15        -2.3722   -0.5118    1.1330 H         1 <0>         0.0809
     43 H16        -2.4614   -0.4705   -0.6443 H         1 <0>         0.0757
     44 H17        -1.6701   -2.1798   -2.0153 H         1 <0>         0.1142
     45 H18        -0.1613   -2.8084   -1.2758 H         1 <0>         0.1135
     46 H19        -3.4080   -3.1393    1.3120 H         1 <0>         0.1394
     47 H20        -3.8722   -2.4320   -0.2658 H         1 <0>         0.1370
     48 H21        -4.0141   -5.6639   -1.5953 H         1 <0>         0.1226
     49 H22        -4.9935   -4.7650   -0.4115 H         1 <0>         0.1293
     50 H23        -4.3724   -3.9409   -1.8618 H         1 <0>         0.1235
     51 H24         0.5319   -4.7266   -2.4165 H         1 <0>         0.4050
     52 H25         6.8595   -7.0854   -1.9724 H         1 <0>         0.0808
     53 H26         5.7945   -7.5862   -0.6371 H         1 <0>         0.0861
     54 H27         7.2632   -8.5227   -1.0032 H         1 <0>         0.1109
     55 H28         3.5017  -10.4257   -3.4241 H         1 <0>         0.3808
     56 H29         1.9427   -8.6497   -6.5084 H         1 <0>         0.3910
     57 H30         0.2173   -8.9242   -3.6144 H         1 <0>         0.3870
     58 H31         2.0473   -3.6363   -0.8964 H         1 <0>         0.0574
     59 H32         3.5183   -3.8710    0.0778 H         1 <0>         0.0716
     60 H33         3.4587   -4.4612   -1.6004 H         1 <0>         0.0689
     61 H34         1.2797   -6.2722    1.4132 H         1 <0>         0.3850
     62 H35        -2.7419   -5.0296    0.3248 H         1 <0>         0.4338
@<TRIPOS>BOND
     1    1    2 1
     2    1   37 1
     3    1   38 1
     4    1   39 1
     5    2    3 1
     6    2   40 1
     7    2   41 1
     8    3    4 1
     9    3   42 1
    10    3   43 1
    11    4    5 1
    12    4   10 1
    13    4    6 1
    14    6    7 1
    15    6   44 1
    16    6   45 1
    17    7    8 1
    18    7    9 1
    19    7   12 1
    20    9   10 1
    21    9   11 1
    22    9   62 1
    23   10   46 1
    24   10   47 1
    25   11   48 1
    26   11   49 1
    27   11   50 1
    28   12   13 2
    29   12   14 am
    30   14   15 1
    31   14   51 1
    32   15   16 1
    33   15   17 1
    34   15   33 1
    35   17   18 1
    36   17   27 1
    37   17   19 1
    38   19   20 1
    39   19   21 1
    40   19   32 1
    41   21   22 1
    42   21   23 1
    43   21   31 1
    44   23   24 1
    45   23   25 1
    46   23   30 1
    47   25   26 1
    48   25   27 1
    49   25   28 1
    50   28   29 1
    51   29   52 1
    52   29   53 1
    53   29   54 1
    54   30   55 1
    55   31   56 1
    56   32   57 1
    57   33   34 1
    58   33   35 1
    59   33   36 1
    60   35   58 1
    61   35   59 1
    62   35   60 1
    63   36   61 1
@<TRIPOS>MOLECULE
ZINC40760766
   59    61     0     0     0
SMALL
USER_CHARGES

@<TRIPOS>ATOM
      1 C1          1.0351   -1.4334    1.6909 C.3       1 <0>        -0.2019
      2 C2          0.1175   -0.9209    0.6108 C.2       1 <0>         0.3940
      3 O1         -0.5960    0.0365    0.8249 O.2       1 <0>        -0.4598
      4 C3          0.0872   -1.5802   -0.7001 C.ar      1 <0>        -0.1939
      5 C4          0.9061   -2.6897   -0.9477 C.ar      1 <0>        -0.0491
      6 C5          0.8744   -3.3003   -2.1686 C.ar      1 <0>        -0.1320
      7 C6          0.0296   -2.8213   -3.1675 C.ar      1 <0>         0.1958
      8 C7         -0.7864   -1.7184   -2.9256 C.ar      1 <0>        -0.1675
      9 C8         -0.7652   -1.1053   -1.7057 C.ar      1 <0>        -0.0345
     10 N1          0.0012   -3.4454   -4.4091 N.pl3     1 <0>        -0.6510
     11 C9          0.2060   -4.8179   -4.5025 C.ar      1 <0>         0.3920
     12 C10         0.2928   -5.4384   -5.7499 C.ar      1 <0>         0.0149
     13 C11         0.4990   -6.8189   -5.7866 C.ar      1 <0>         0.3963
     14 N2          0.6042   -7.4855   -4.6396 N.ar      1 <0>        -0.5694
     15 C12         0.5164   -6.8609   -3.4827 C.ar      1 <0>         0.3245
     16 N3          0.3278   -5.5592   -3.4039 N.ar      1 <0>        -0.5490
     17 N4          0.5925   -7.4864   -7.0019 N.pl3     1 <0>        -0.7174
     18 C13         0.8095   -8.9386   -7.0272 C.3       1 <0>         0.1580
     19 C14         2.3112   -9.2233   -6.9613 C.3       1 <0>        -0.1422
     20 C15         2.5544  -10.7316   -6.9992 C.3       1 <0>         0.0594
     21 N5          1.9168  -11.3612   -8.1461 N.4       1 <0>        -0.4912
     22 C16         0.5362  -11.0047   -8.4314 C.3       1 <0>         0.0639
     23 C17         0.2709   -9.5056   -8.3401 C.3       1 <0>        -0.1429
     24 C18        -0.4423  -11.7637   -7.5314 C.3       1 <0>        -0.1749
     25 C19         0.2368  -11.4354   -9.8873 C.3       1 <0>        -0.1807
     26 C20         2.1238  -11.3699   -5.6791 C.3       1 <0>        -0.1693
     27 C21         4.0794  -10.9467   -7.1365 C.3       1 <0>        -0.1796
     28 N6          0.1754   -4.6949   -6.9350 N.pl3     1 <0>        -0.8742
     29 H1          0.5139   -2.1847    2.2841 H         1 <0>         0.0984
     30 H2          1.9191   -1.8794    1.2352 H         1 <0>         0.0855
     31 H3          1.3359   -0.6068    2.3345 H         1 <0>         0.0889
     32 H4          1.5619   -3.0612   -0.1741 H         1 <0>         0.1364
     33 H5          1.5054   -4.1556   -2.3603 H         1 <0>         0.1413
     34 H6         -1.4398   -1.3504   -3.7028 H         1 <0>         0.1290
     35 H7         -1.4011   -0.2529   -1.5177 H         1 <0>         0.1372
     36 H8         -0.1615   -2.9237   -5.2106 H         1 <0>         0.4161
     37 H9          0.6063   -7.4328   -2.5710 H         1 <0>         0.1992
     38 H10         0.5144   -6.9931   -7.8334 H         1 <0>         0.4065
     39 H11         0.2978   -9.3872   -6.1805 H         1 <0>         0.1104
     40 H12         2.8084   -8.7526   -7.8108 H         1 <0>         0.0859
     41 H13         2.7180   -8.8128   -6.0356 H         1 <0>         0.1146
     42 H14         2.4794  -11.1594   -8.9766 H         1 <0>         0.4238
     43 H15        -0.8051   -9.3222   -8.3989 H         1 <0>         0.1142
     44 H16         0.7566   -8.9992   -9.1785 H         1 <0>         0.0919
     45 H17        -0.3145  -11.4375   -6.4993 H         1 <0>         0.0847
     46 H18        -1.4639  -11.5607   -7.8528 H         1 <0>         0.1044
     47 H19        -0.2453  -12.8335   -7.6013 H         1 <0>         0.0830
     48 H20         0.3806  -12.5115   -9.9846 H         1 <0>         0.0847
     49 H21        -0.7937  -11.1825  -10.1364 H         1 <0>         0.1064
     50 H22         0.9128  -10.9157  -10.5662 H         1 <0>         0.0810
     51 H23         1.0942  -11.0883   -5.4581 H         1 <0>         0.0854
     52 H24         2.1945  -12.4546   -5.7598 H         1 <0>         0.0789
     53 H25         2.7756  -11.0219   -4.8777 H         1 <0>         0.1057
     54 H26         4.5878  -10.4980   -6.2831 H         1 <0>         0.1062
     55 H27         4.2944  -12.0148   -7.1671 H         1 <0>         0.0829
     56 H28         4.4309  -10.4787   -8.0561 H         1 <0>         0.0795
     57 H29         0.0320   -3.7365   -6.8941 H         1 <0>         0.3986
     58 H30         0.2378   -5.1397   -7.7947 H         1 <0>         0.3952
     59 H31         1.9698  -12.3757   -8.0263 H         1 <0>         0.4258
@<TRIPOS>BOND
     1    1    2 1
     2    1   29 1
     3    1   30 1
     4    1   31 1
     5    2    3 2
     6    2    4 1
     7    4    9 ar
     8    4    5 ar
     9    5    6 ar
    10    5   32 1
    11    6    7 ar
    12    6   33 1
    13    7    8 ar
    14    7   10 1
    15    8    9 ar
    16    8   34 1
    17    9   35 1
    18   10   11 1
    19   10   36 1
    20   11   16 ar
    21   11   12 ar
    22   12   13 ar
    23   12   28 1
    24   13   14 ar
    25   13   17 1
    26   14   15 ar
    27   15   16 ar
    28   15   37 1
    29   17   18 1
    30   17   38 1
    31   18   23 1
    32   18   19 1
    33   18   39 1
    34   19   20 1
    35   19   40 1
    36   19   41 1
    37   20   21 1
    38   20   26 1
    39   20   27 1
    40   21   22 1
    41   21   42 1
    42   21   59 1
    43   22   23 1
    44   22   24 1
    45   22   25 1
    46   23   43 1
    47   23   44 1
    48   24   45 1
    49   24   46 1
    50   24   47 1
    51   25   48 1
    52   25   49 1
    53   25   50 1
    54   26   51 1
    55   26   52 1
    56   26   53 1
    57   27   54 1
    58   27   55 1
    59   27   56 1
    60   28   57 1
    61   28   58 1
@<TRIPOS>MOLECULE
ZINC36624819
   61    64     0     0     0
SMALL
USER_CHARGES

@<TRIPOS>ATOM
      1 C1          1.0990    1.1228   -1.2645 C.3       1 <0>        -0.1180
      2 C2          0.8014   -0.3114   -0.9102 C.ar      1 <0>        -0.0997
      3 C3          0.8587   -1.2901   -1.8928 C.ar      1 <0>        -0.0865
      4 C4          0.5901   -2.6069   -1.5894 C.ar      1 <0>        -0.1264
      5 C5          0.2579   -2.9632   -0.2854 C.ar      1 <0>         0.1066
      6 C6          0.2020   -1.9673    0.7054 C.ar      1 <0>        -0.0864
      7 C7          0.4824   -0.6400    0.3774 C.ar      1 <0>        -0.0627
      8 C8         -0.1695   -2.6476    1.9544 C.2       1 <0>        -0.0830
      9 C9         -0.3115   -3.9839    1.6450 C.2       1 <0>         0.1081
     10 N1         -0.0555   -4.1674    0.3078 N.pl3     1 <0>        -0.4749
     11 C10        -0.1081   -5.4560   -0.3870 C.3       1 <0>         0.0881
     12 C11         1.2988   -6.0526   -0.4623 C.3       1 <0>         0.0573
     13 H1          1.7229   -6.1106    0.5402 H         1 <0>         0.1321
     14 C12         1.2260   -7.4561   -1.0672 C.3       1 <0>        -0.0464
     15 N2          2.5576   -8.0752   -1.0295 N.4       1 <0>        -0.5002
     16 C13         2.4876   -9.4227   -1.6103 C.3       1 <0>        -0.0392
     17 C14         3.8745  -10.0676   -1.5711 C.3       1 <0>        -0.0329
     18 N3          3.8046  -11.4151   -2.1519 N.4       1 <0>        -0.6306
     19 O1          2.1248   -5.2230   -1.2817 O.3       1 <0>        -0.5368
     20 C15        -0.6801   -5.0485    2.5993 C.ar      1 <0>        -0.0284
     21 C16         0.1377   -6.1708    2.7486 C.ar      1 <0>        -0.1240
     22 C17        -0.2128   -7.1616    3.6420 C.ar      1 <0>        -0.1235
     23 C18        -1.3715   -7.0454    4.3894 C.ar      1 <0>        -0.1055
     24 C19        -2.1864   -5.9362    4.2466 C.ar      1 <0>        -0.1044
     25 C20        -1.8452   -4.9351    3.3611 C.ar      1 <0>        -0.0791
     26 C21        -0.3540   -2.0217    3.2827 C.ar      1 <0>        -0.0237
     27 C22         0.5048   -2.3436    4.3343 C.ar      1 <0>        -0.1021
     28 C23         0.3274   -1.7567    5.5702 C.ar      1 <0>        -0.1177
     29 C24        -0.6993   -0.8507    5.7680 C.ar      1 <0>        -0.1120
     30 C25        -1.5546   -0.5276    4.7296 C.ar      1 <0>        -0.1149
     31 C26        -1.3841   -1.1029    3.4872 C.ar      1 <0>        -0.1047
     32 H2          2.1654    1.3132   -1.1432 H         1 <0>         0.0722
     33 H3          0.8122    1.3084   -2.2996 H         1 <0>         0.0689
     34 H4          0.5347    1.7841   -0.6070 H         1 <0>         0.0696
     35 H5          1.1161   -1.0166   -2.9053 H         1 <0>         0.1286
     36 H6          0.6367   -3.3607   -2.3614 H         1 <0>         0.1098
     37 H7          0.4439    0.1256    1.1382 H         1 <0>         0.1266
     38 H8         -0.7625   -6.1363    0.1580 H         1 <0>         0.1095
     39 H9         -0.4950   -5.3095   -1.3955 H         1 <0>         0.1019
     40 H10         0.5265   -8.0634   -0.4928 H         1 <0>         0.1534
     41 H11         0.8855   -7.3891   -2.1005 H         1 <0>         0.1478
     42 H12         3.2051   -7.5130   -1.5612 H         1 <0>         0.4426
     43 H13         1.7881  -10.0301   -1.0360 H         1 <0>         0.1564
     44 H14         2.1472   -9.3558   -2.6436 H         1 <0>         0.1560
     45 H15         4.5740   -9.4603   -2.1455 H         1 <0>         0.1578
     46 H16         4.2149  -10.1346   -0.5378 H         1 <0>         0.1576
     47 H17         4.7192  -11.8404   -2.1260 H         1 <0>         0.4594
     48 H18         3.1570  -11.9773   -1.6202 H         1 <0>         0.4460
     49 H19         1.8070   -5.1261   -2.1898 H         1 <0>         0.3892
     50 H20         1.0421   -6.2629    2.1656 H         1 <0>         0.1059
     51 H21         0.4184   -8.0301    3.7581 H         1 <0>         0.1215
     52 H22        -1.6414   -7.8243    5.0871 H         1 <0>         0.1293
     53 H23        -3.0894   -5.8520    4.8331 H         1 <0>         0.1337
     54 H24        -2.4796   -4.0676    3.2542 H         1 <0>         0.1305
     55 H25         1.3065   -3.0510    4.1811 H         1 <0>         0.1141
     56 H26         0.9913   -2.0052    6.3850 H         1 <0>         0.1237
     57 H27        -0.8340   -0.3939    6.7374 H         1 <0>         0.1255
     58 H28        -2.3546    0.1799    4.8906 H         1 <0>         0.1270
     59 H29        -2.0491   -0.8460    2.6760 H         1 <0>         0.1218
     60 H30         3.4894  -11.3531   -3.1084 H         1 <0>         0.4461
     61 H31         2.8727   -8.1372   -0.0730 H         1 <0>         0.4386
@<TRIPOS>BOND
     1    1    2 1
     2    1   32 1
     3    1   33 1
     4    1   34 1
     5    2    7 ar
     6    2    3 ar
     7    3    4 ar
     8    3   35 1
     9    4    5 ar
    10    4   36 1
    11    5   10 1
    12    5    6 ar
    13    6    7 ar
    14    6    8 1
    15    7   37 1
    16    8    9 2
    17    8   26 1
    18    9   10 1
    19    9   20 1
    20   10   11 1
    21   11   12 1
    22   11   38 1
    23   11   39 1
    24   12   13 1
    25   12   14 1
    26   12   19 1
    27   14   15 1
    28   14   40 1
    29   14   41 1
    30   15   16 1
    31   15   42 1
    32   15   61 1
    33   16   17 1
    34   16   43 1
    35   16   44 1
    36   17   18 1
    37   17   45 1
    38   17   46 1
    39   18   47 1
    40   18   48 1
    41   18   60 1
    42   19   49 1
    43   20   25 ar
    44   20   21 ar
    45   21   22 ar
    46   21   50 1
    47   22   23 ar
    48   22   51 1
    49   23   24 ar
    50   23   52 1
    51   24   25 ar
    52   24   53 1
    53   25   54 1
    54   26   31 ar
    55   26   27 ar
    56   27   28 ar
    57   27   55 1
    58   28   29 ar
    59   28   56 1
    60   29   30 ar
    61   29   57 1
    62   30   31 ar
    63   30   58 1
    64   31   59 1
@<TRIPOS>MOLECULE
ZINC08790263
   60    64     0     0     0
SMALL
USER_CHARGES
3-(methyl-trioxo-phenethyl-BLAHyl)propanamide
@<TRIPOS>ATOM
      1 C1          9.0400   -8.6412   -1.3134 C.3       1 <0>        -0.1237
      2 C2          8.1441   -7.7418   -2.1254 C.ar      1 <0>        -0.0826
      3 C3          7.2075   -8.2882   -2.9838 C.ar      1 <0>        -0.0469
      4 C4          6.3849   -7.4698   -3.7295 C.ar      1 <0>        -0.1144
      5 C5          6.4920   -6.0850   -3.6240 C.ar      1 <0>         0.1617
      6 C6          7.4377   -5.5463   -2.7566 C.ar      1 <0>        -0.1934
      7 C7          8.2564   -6.3673   -2.0139 C.ar      1 <0>        -0.0469
      8 C8          7.2999   -4.0548   -2.8738 C.3       1 <0>         0.0940
      9 C9          6.9569   -3.4133   -1.5242 C.3       1 <0>        -0.1225
     10 H1          7.2190   -4.0506   -0.6796 H         1 <0>         0.1797
     11 C10         7.7156   -2.0569   -1.5301 C.3       1 <0>        -0.1387
     12 H2          8.4085   -1.9549   -0.6948 H         1 <0>         0.1792
     13 C11         8.4239   -2.0062   -2.9009 C.3       1 <0>         0.0374
     14 H3          7.8175   -1.4595   -3.6230 H         1 <0>         0.1611
     15 C12         9.8023   -1.3563   -2.7642 C.3       1 <0>        -0.1207
     16 C13        10.4660   -1.2739   -4.1403 C.3       1 <0>        -0.1614
     17 C14        11.8236   -0.6338   -4.0056 C.2       1 <0>         0.5171
     18 O1         12.2212   -0.2784   -2.9163 O.2       1 <0>        -0.5318
     19 N1         12.5960   -0.4562   -5.0958 N.am      1 <0>        -0.8501
     20 C15         6.6016   -1.0345   -1.5156 C.2       1 <0>         0.5350
     21 O2          6.7547    0.1681   -1.5143 O.2       1 <0>        -0.4332
     22 N2          5.4209   -1.6635   -1.5019 N.am      1 <0>        -0.5547
     23 C16         5.5029   -2.9990   -1.5098 C.2       1 <0>         0.5288
     24 O3          4.5582   -3.7587   -1.5058 O.2       1 <0>        -0.4362
     25 C17         4.1424   -0.9483   -1.4858 C.3       1 <0>         0.1059
     26 C18         3.7112   -0.7071   -0.0378 C.3       1 <0>        -0.0918
     27 C19         2.3960    0.0285   -0.0212 C.ar      1 <0>        -0.0944
     28 C20         1.2084   -0.6789   -0.0136 C.ar      1 <0>        -0.1124
     29 C21         0.0021   -0.0041    0.0020 C.ar      1 <0>        -0.1165
     30 C22        -0.0167    1.3781    0.0096 C.ar      1 <0>        -0.1138
     31 C23         1.1709    2.0855    0.0021 C.ar      1 <0>        -0.1160
     32 C24         2.3773    1.4107   -0.0141 C.ar      1 <0>        -0.1116
     33 C25         6.2015   -3.8412   -3.8791 C.2       1 <0>         0.5208
     34 O4          5.7725   -2.7753   -4.2675 O.2       1 <0>        -0.4456
     35 N3          5.7865   -5.0636   -4.2639 N.am      1 <0>        -0.6309
     36 H4          9.9489   -8.8532   -1.8766 H         1 <0>         0.0823
     37 H5          9.2997   -8.1464   -0.3775 H         1 <0>         0.0756
     38 H6          8.5196   -9.5746   -1.0987 H         1 <0>         0.0795
     39 H7          7.1195   -9.3612   -3.0705 H         1 <0>         0.1500
     40 H8          5.6557   -7.9040   -4.3975 H         1 <0>         0.1458
     41 H9          8.9869   -5.9380   -1.3441 H         1 <0>         0.1419
     42 H10         9.6917   -0.3527   -2.3535 H         1 <0>         0.1359
     43 H11        10.4220   -1.9555   -2.0972 H         1 <0>         0.1090
     44 H12        10.5766   -2.2775   -4.5509 H         1 <0>         0.0915
     45 H13         9.8463   -0.6747   -4.8073 H         1 <0>         0.1136
     46 H14        12.2781   -0.7404   -5.9670 H         1 <0>         0.4045
     47 H15        13.4699   -0.0442   -5.0091 H         1 <0>         0.4117
     48 H16         3.3859   -1.5449   -1.9956 H         1 <0>         0.1025
     49 H17         4.2549    0.0085   -1.9956 H         1 <0>         0.1059
     50 H18         4.4677   -0.1105    0.4720 H         1 <0>         0.0813
     51 H19         3.5987   -1.6640    0.4720 H         1 <0>         0.0794
     52 H20         1.2231   -1.7588   -0.0196 H         1 <0>         0.1215
     53 H21        -0.9258   -0.5567    0.0079 H         1 <0>         0.1256
     54 H22        -0.9592    1.9054    0.0170 H         1 <0>         0.1258
     55 H23         1.1563    3.1654    0.0077 H         1 <0>         0.1261
     56 H24         3.3051    1.9634   -0.0204 H         1 <0>         0.1231
     57 H25         5.0795   -5.2167   -4.9101 H         1 <0>         0.4379
     58 N4          8.5329   -3.4127   -3.2949 N.4       1 <0>        -0.4885
     59 H26         8.6429   -3.4885   -4.3129 H         1 <0>         0.4424
     60 H27         9.3374   -3.8500   -2.8303 H         1 <0>         0.4449
@<TRIPOS>BOND
     1    1    2 1
     2    1   36 1
     3    1   37 1
     4    1   38 1
     5    2    7 ar
     6    2    3 ar
     7    3    4 ar
     8    3   39 1
     9    4    5 ar
    10    4   40 1
    11    5   35 1
    12    5    6 ar
    13    6    7 ar
    14    6    8 1
    15    7   41 1
    16    8    9 1
    17    8   33 1
    18    8   58 1
    19    9   10 1
    20    9   23 1
    21    9   11 1
    22   11   12 1
    23   11   13 1
    24   11   20 1
    25   13   14 1
    26   13   15 1
    27   13   58 1
    28   15   16 1
    29   15   42 1
    30   15   43 1
    31   16   17 1
    32   16   44 1
    33   16   45 1
    34   17   18 2
    35   17   19 am
    36   19   46 1
    37   19   47 1
    38   20   21 2
    39   20   22 am
    40   22   23 am
    41   22   25 1
    42   23   24 2
    43   25   26 1
    44   25   48 1
    45   25   49 1
    46   26   27 1
    47   26   50 1
    48   26   51 1
    49   27   32 ar
    50   27   28 ar
    51   28   29 ar
    52   28   52 1
    53   29   30 ar
    54   29   53 1
    55   30   31 ar
    56   30   54 1
    57   31   32 ar
    58   31   55 1
    59   32   56 1
    60   33   34 2
    61   33   35 am
    62   35   57 1
    63   58   59 1
    64   58   60 1
@<TRIPOS>MOLECULE
ZINC14246066
   76    79     0     0     0
SMALL
USER_CHARGES
N-(6-amino-1-butyl-2,4-dioxo-pyrimidin-5-yl)-N-cyclopentyl-2-[4-[(S)-hydroxy-phenyl-methyl]-1-piperidyl]acetamide
@<TRIPOS>ATOM
      1 C1         -1.7315    4.4629   -6.2696 C.3       1 <0>        -0.1547
      2 C2         -1.0995    5.1468   -5.0557 C.3       1 <0>        -0.1212
      3 C3         -0.8844    4.1171   -3.9447 C.3       1 <0>        -0.1393
      4 C4         -0.2524    4.8010   -2.7308 C.3       1 <0>         0.1014
      5 N1         -0.0465    3.8150   -1.6670 N.am      1 <0>        -0.5354
      6 C5          1.1366    3.1163   -1.6021 C.2       1 <0>         0.5173
      7 C6          1.3180    2.1907   -0.5948 C.2       1 <0>        -0.1798
      8 C7          0.2830    1.9900    0.3378 C.2       1 <0>         0.5729
      9 O1          0.4167    1.1780    1.2377 O.2       1 <0>        -0.5179
     10 N2         -0.8585    2.6970    0.2263 N.am      1 <0>        -0.6614
     11 H1         -1.5974    2.5496    0.8838 H         1 <0>         0.4453
     12 C8         -1.0155    3.5986   -0.7591 C.2       1 <0>         0.7097
     13 O2         -2.0542    4.2265   -0.8337 O.2       1 <0>        -0.5156
     14 N3          2.5200    1.4578   -0.5017 N.am      1 <0>        -0.4809
     15 C9          2.5106    0.0067   -0.7031 C.3       1 <0>         0.1285
     16 C10         2.9808   -0.7079    0.5807 C.3       1 <0>        -0.1380
     17 C11         3.8124   -1.9088    0.0631 C.3       1 <0>        -0.1309
     18 C12         4.5479   -1.3131   -1.1629 C.3       1 <0>        -0.1409
     19 C13         3.5063   -0.3780   -1.8114 C.3       1 <0>        -0.1517
     20 C14         3.6782    2.0934   -0.2271 C.2       1 <0>         0.4922
     21 O3          3.6698    3.2716    0.0623 O.2       1 <0>        -0.5133
     22 C15         4.9822    1.3398   -0.2800 C.3       1 <0>        -0.0536
     23 C16         5.7551    2.6732    1.5868 C.3       1 <0>        -0.0193
     24 C17         6.8270    3.6712    2.0308 C.3       1 <0>        -0.1369
     25 C18         8.1958    2.9852    2.0106 C.3       1 <0>        -0.1298
     26 C19         8.4699    2.4519    0.6017 C.3       1 <0>        -0.1370
     27 C20         7.3504    1.4893    0.1991 C.3       1 <0>        -0.0027
     28 C21         9.2794    3.9947    2.3950 C.3       1 <0>         0.1592
     29 H2          9.2727    4.8225    1.6860 H         1 <0>         0.1113
     30 C22         9.0084    4.5188    3.7818 C.ar      1 <0>        -0.1296
     31 C23         9.4517    3.8146    4.8856 C.ar      1 <0>        -0.1121
     32 C24         9.2074    4.2978    6.1575 C.ar      1 <0>        -0.1120
     33 C25         8.5111    5.4801    6.3258 C.ar      1 <0>        -0.1110
     34 C26         8.0629    6.1813    5.2221 C.ar      1 <0>        -0.1141
     35 C27         8.3117    5.7008    3.9500 C.ar      1 <0>        -0.1126
     36 O4         10.5570    3.3552    2.3687 O.3       1 <0>        -0.5469
     37 N4          2.1262    3.3371   -2.5298 N.pl3     1 <0>        -0.8243
     38 H3         -1.0696    3.6746   -6.6281 H         1 <0>         0.0540
     39 H4         -2.6906    4.0304   -5.9845 H         1 <0>         0.0579
     40 H5         -1.8847    5.1965   -7.0611 H         1 <0>         0.0616
     41 H6         -1.7614    5.9352   -4.6972 H         1 <0>         0.0718
     42 H7         -0.1404    5.5794   -5.3408 H         1 <0>         0.0652
     43 H8         -0.2225    3.3287   -4.3031 H         1 <0>         0.0675
     44 H9         -1.8435    3.6845   -3.6596 H         1 <0>         0.0800
     45 H10        -0.9143    5.5893   -2.3723 H         1 <0>         0.1177
     46 H11         0.7066    5.2335   -3.0158 H         1 <0>         0.0921
     47 H12         1.5077   -0.3265   -0.9699 H         1 <0>         0.1136
     48 H13         3.6027   -0.0439    1.1810 H         1 <0>         0.0635
     49 H14         2.1248   -1.0565    1.1586 H         1 <0>         0.0955
     50 H15         3.1601   -2.7283   -0.2384 H         1 <0>         0.0849
     51 H16         4.5256   -2.2421    0.8170 H         1 <0>         0.0788
     52 H17         4.8352   -2.1033   -1.8565 H         1 <0>         0.0865
     53 H18         5.4231   -0.7467   -0.8447 H         1 <0>         0.0617
     54 H19         2.9866   -0.8987   -2.6158 H         1 <0>         0.0957
     55 H20         3.9964    0.5149   -2.1995 H         1 <0>         0.0652
     56 H21         4.9074    0.4409    0.3319 H         1 <0>         0.1733
     57 H22         5.1988    1.0605   -1.3111 H         1 <0>         0.1661
     58 H23         4.7812    3.1626    1.5864 H         1 <0>         0.1529
     59 H24         5.7369    1.8291    2.2762 H         1 <0>         0.1248
     60 H25         6.6074    4.0155    3.0414 H         1 <0>         0.1154
     61 H26         6.8364    4.5222    1.3498 H         1 <0>         0.0905
     62 H27         8.1991    2.1579    2.7203 H         1 <0>         0.0932
     63 H28         9.4241    1.9251    0.5913 H         1 <0>         0.1211
     64 H29         8.5056    3.2834   -0.1022 H         1 <0>         0.0908
     65 H30         7.3247    0.6507    0.8950 H         1 <0>         0.1321
     66 H31         7.5351    1.1188   -0.8092 H         1 <0>         0.1312
     67 H32         9.9922    2.8888    4.7542 H         1 <0>         0.1199
     68 H33         9.5573    3.7497    7.0198 H         1 <0>         0.1271
     69 H34         8.3170    5.8557    7.3196 H         1 <0>         0.1272
     70 H35         7.5186    7.1048    5.3536 H         1 <0>         0.1269
     71 H36         7.9616    6.2487    3.0877 H         1 <0>         0.1221
     72 H37        10.6352    2.6074    2.9767 H         1 <0>         0.3781
     73 H38         2.9202    2.7799   -2.5339 H         1 <0>         0.4153
     74 H39         2.0306    4.0501   -3.1805 H         1 <0>         0.4145
     75 N5          6.0635    2.2166    0.2148 N.4       1 <0>        -0.3806
     76 H40         6.1364    3.0356   -0.4002 H         1 <0>         0.4298
@<TRIPOS>BOND
     1    1    2 1
     2    1   38 1
     3    1   39 1
     4    1   40 1
     5    2    3 1
     6    2   41 1
     7    2   42 1
     8    3    4 1
     9    3   43 1
    10    3   44 1
    11    4    5 1
    12    4   45 1
    13    4   46 1
    14    5   12 am
    15    5    6 1
    16    6    7 2
    17    6   37 1
    18    7    8 1
    19    7   14 1
    20    8    9 2
    21    8   10 am
    22   10   11 1
    23   10   12 am
    24   12   13 2
    25   14   15 1
    26   14   20 am
    27   15   19 1
    28   15   16 1
    29   15   47 1
    30   16   17 1
    31   16   48 1
    32   16   49 1
    33   17   18 1
    34   17   50 1
    35   17   51 1
    36   18   19 1
    37   18   52 1
    38   18   53 1
    39   19   54 1
    40   19   55 1
    41   20   21 2
    42   20   22 1
    43   22   56 1
    44   22   57 1
    45   22   75 1
    46   23   24 1
    47   23   58 1
    48   23   59 1
    49   23   75 1
    50   24   25 1
    51   24   60 1
    52   24   61 1
    53   25   26 1
    54   25   28 1
    55   25   62 1
    56   26   27 1
    57   26   63 1
    58   26   64 1
    59   27   65 1
    60   27   66 1
    61   27   75 1
    62   28   29 1
    63   28   30 1
    64   28   36 1
    65   30   35 ar
    66   30   31 ar
    67   31   32 ar
    68   31   67 1
    69   32   33 ar
    70   32   68 1
    71   33   34 ar
    72   33   69 1
    73   34   35 ar
    74   34   70 1
    75   35   71 1
    76   36   72 1
    77   37   73 1
    78   37   74 1
    79   75   76 1
@<TRIPOS>MOLECULE
ZINC22247168
   56    59     0     0     0
SMALL
USER_CHARGES

@<TRIPOS>ATOM
      1 C1         -0.0184    1.5028    0.0103 C.3       1 <0>        -0.1109
      2 C2          0.0021   -0.0041    0.0020 C.2       1 <0>        -0.0729
      3 C3          0.0059   -0.6770   -1.1598 C.2       1 <0>        -0.1339
      4 S1          0.0321   -2.3845   -0.6478 S.3       1 <0>         0.1781
      5 C4          0.0372   -2.1444    1.1102 C.2       1 <0>         0.0624
      6 C5          0.0240   -0.7448    1.2495 C.2       1 <0>        -0.2014
      7 C6          0.0292   -0.2565    2.5968 C.2       1 <0>         0.5570
      8 O1          0.0141    0.9415    2.8212 O.2       1 <0>        -0.4880
      9 N1          0.0506   -1.1417    3.6105 N.am      1 <0>        -0.6220
     10 H1          0.0542   -0.8173    4.5246 H         1 <0>         0.4277
     11 C7          0.0667   -2.4797    3.3796 C.2       1 <0>         0.3548
     12 N2          0.0532   -2.9560    2.1634 N.2       1 <0>        -0.4903
     13 C8          0.0899   -3.4321    4.5472 C.3       1 <0>         0.0575
     14 N3          0.1043   -4.8147    4.0511 N.4       1 <0>        -0.3757
     15 C9          1.3558   -5.0601    3.3224 C.3       1 <0>        -0.0101
     16 C10         1.3631   -6.4945    2.7894 C.3       1 <0>         0.0318
     17 N4          1.2388   -7.4327    3.9139 N.3       1 <0>        -0.5231
     18 C11         0.0022   -7.1827    4.6679 C.3       1 <0>         0.0182
     19 C12         0.0062   -5.7426    5.1855 C.3       1 <0>        -0.0005
     20 C13         1.2988   -8.8244    3.4475 C.3       1 <0>         0.0419
     21 C14         1.4157   -9.7469    4.6334 C.2       1 <0>         0.5066
     22 O2          1.4461   -9.2901    5.7564 O.2       1 <0>        -0.4905
     23 N5          1.4865  -11.0797    4.4459 N.am      1 <0>        -0.6074
     24 C15         1.5941  -11.9286    5.5370 C.2       1 <0>         0.0713
     25 C16         1.6833  -13.3129    5.5350 C.2       1 <0>        -0.2603
     26 C17         1.7872  -13.9556    6.8250 C.2       1 <0>        -0.1041
     27 C18         1.7859  -13.1345    7.8914 C.2       1 <0>        -0.2440
     28 S2          1.6537  -11.5167    7.1624 S.3       1 <0>         0.2849
     29 C19         1.6722  -14.0843    4.2881 C.2       1 <0>         0.5909
     30 O3          1.5830  -13.5106    3.2184 O.2       1 <0>        -0.5682
     31 N6          1.7607  -15.4286    4.3265 N.am      1 <0>        -0.8452
     32 C20        -0.0090   -0.1219   -2.5608 C.3       1 <0>        -0.0787
     33 H2          1.0042    1.8801    0.0026 H         1 <0>         0.0782
     34 H3         -0.5455    1.8639   -0.8728 H         1 <0>         0.0749
     35 H4         -0.5286    1.8543    0.9071 H         1 <0>         0.0839
     36 H5          0.9829   -3.2515    5.1457 H         1 <0>         0.1678
     37 H6         -0.7969   -3.2756    5.1614 H         1 <0>         0.1679
     38 H7          1.4337   -4.3623    2.4887 H         1 <0>         0.1537
     39 H8          2.2017   -4.9182    3.9951 H         1 <0>         0.1371
     40 H9          0.5252   -6.6328    2.1061 H         1 <0>         0.0676
     41 H10         2.2981   -6.6816    2.2613 H         1 <0>         0.1269
     42 H11        -0.8581   -7.3323    4.0156 H         1 <0>         0.0617
     43 H12        -0.0556   -7.8718    5.5105 H         1 <0>         0.1415
     44 H13         0.8590   -5.5973    5.8486 H         1 <0>         0.1454
     45 H14        -0.9166   -5.5508    5.7331 H         1 <0>         0.1407
     46 H15         0.3916   -9.0606    2.8914 H         1 <0>         0.0873
     47 H16         2.1659   -8.9535    2.7999 H         1 <0>         0.1276
     48 H17         1.4623  -11.4451    3.5477 H         1 <0>         0.4350
     49 H18         1.8610  -15.0283    6.9272 H         1 <0>         0.1459
     50 H19         1.8533  -13.3946    8.9374 H         1 <0>         0.1925
     51 H20         1.8318  -15.8858    5.1790 H         1 <0>         0.4037
     52 H21         1.7534  -15.9389    3.5016 H         1 <0>         0.4074
     53 H22         1.0149    0.0265   -2.9037 H         1 <0>         0.0907
     54 H23        -0.5163   -0.8228   -3.2239 H         1 <0>         0.0827
     55 H24        -0.5366    0.8319   -2.5681 H         1 <0>         0.0932
     56 H25        -0.6789   -4.9576    3.4313 H         1 <0>         0.4308
@<TRIPOS>BOND
     1    1    2 1
     2    1   33 1
     3    1   34 1
     4    1   35 1
     5    2    6 1
     6    2    3 2
     7    3    4 1
     8    3   32 1
     9    4    5 1
    10    5   12 1
    11    5    6 2
    12    6    7 1
    13    7    8 2
    14    7    9 am
    15    9   10 1
    16    9   11 1
    17   11   12 2
    18   11   13 1
    19   13   14 1
    20   13   36 1
    21   13   37 1
    22   14   19 1
    23   14   15 1
    24   14   56 1
    25   15   16 1
    26   15   38 1
    27   15   39 1
    28   16   17 1
    29   16   40 1
    30   16   41 1
    31   17   18 1
    32   17   20 1
    33   18   19 1
    34   18   42 1
    35   18   43 1
    36   19   44 1
    37   19   45 1
    38   20   21 1
    39   20   46 1
    40   20   47 1
    41   21   22 2
    42   21   23 am
    43   23   24 1
    44   23   48 1
    45   24   28 1
    46   24   25 2
    47   25   26 1
    48   25   29 1
    49   26   27 2
    50   26   49 1
    51   27   28 1
    52   27   50 1
    53   29   30 2
    54   29   31 am
    55   31   51 1
    56   31   52 1
    57   32   53 1
    58   32   54 1
    59   32   55 1
@<TRIPOS>MOLECULE
ZINC39674102
   77    82     0     0     0
SMALL
USER_CHARGES

@<TRIPOS>ATOM
      1 C1          1.2647    5.2650    2.9298 C.3       1 <0>        -0.0951
      2 C2          1.3965    3.9221    2.2588 C.2       1 <0>         0.0910
      3 H1          3.0224    4.2056    0.9883 H         1 <0>         0.4166
      4 C3          0.6025    2.8645    2.4891 C.2       1 <0>        -0.1804
      5 C4          1.0796    1.7762    1.6324 C.ar      1 <0>        -0.0980
      6 C5          0.6748    0.4566    1.4241 C.ar      1 <0>        -0.0761
      7 C6          1.3478   -0.3262    0.5286 C.ar      1 <0>        -0.1393
      8 C7          2.4312    0.1803   -0.1758 C.ar      1 <0>        -0.0955
      9 C8          2.8476    1.4799    0.0144 C.ar      1 <0>        -0.1275
     10 C9          2.1773    2.2944    0.9208 C.ar      1 <0>         0.0967
     11 N1          2.3395    3.6021    1.3205 N.pl3     1 <0>        -0.5908
     12 C10        -0.5589    2.8073    3.4477 C.3       1 <0>        -0.0472
     13 C11        -1.8397    3.2254    2.7226 C.3       1 <0>         0.1205
     14 N2         -2.9688    3.1698    3.6545 N.am      1 <0>        -0.7291
     15 C12        -4.2064    3.4982    3.2339 C.2       1 <0>         0.5190
     16 O1         -4.3855    3.8396    2.0840 O.2       1 <0>        -0.5183
     17 C13        -5.3678    3.4410    4.1925 C.3       1 <0>        -0.1135
     18 H2         -5.2353    2.6222    4.8997 H         1 <0>         0.1126
     19 C14        -6.6955    3.2749    3.4198 C.3       1 <0>         0.1112
     20 N3         -7.6714    4.0995    4.1706 N.am      1 <0>        -0.6185
     21 C15        -6.9078    5.3083    4.5631 C.3       1 <0>         0.1082
     22 C16        -5.5108    4.7770    4.9408 C.3       1 <0>        -0.0726
     23 C17        -4.4335    5.7562    4.4846 C.3       1 <0>        -0.1473
     24 C18        -4.5597    7.0560    5.2841 C.3       1 <0>        -0.0078
     25 N4         -4.4129    6.7681    6.7160 N.4       1 <0>        -0.5043
     26 C19        -5.5073    5.8999    7.1669 C.3       1 <0>        -0.0115
     27 C20        -5.4211    4.5511    6.4470 C.3       1 <0>        -0.1335
     28 C21        -8.9615    3.8148    4.4370 C.2       1 <0>         0.6284
     29 O2         -9.6652    4.6397    4.9905 O.2       1 <0>        -0.5178
     30 C22        -9.4992    2.5544    4.0725 C.2       1 <0>        -0.3198
     31 C23        -9.9164    2.1920    2.8474 C.2       1 <0>         0.1534
     32 O3        -10.3833    0.9293    2.8293 O.3       1 <0>        -0.1661
     33 N5         -9.8954    0.2443    4.0391 N.3       1 <0>        -0.4384
     34 C24        -9.7030    1.3652    4.9927 C.3       1 <0>         0.1460
     35 H3         -8.8215    1.2001    5.6123 H         1 <0>         0.1202
     36 C25       -10.9306    1.5537    5.8462 C.ar      1 <0>        -0.1197
     37 C26       -12.1879    1.4129    5.2892 C.ar      1 <0>        -0.1128
     38 C27       -13.3140    1.5859    6.0721 C.ar      1 <0>        -0.1105
     39 C28       -13.1828    1.8991    7.4120 C.ar      1 <0>        -0.1094
     40 C29       -11.9255    2.0390    7.9693 C.ar      1 <0>        -0.1154
     41 C30       -10.7994    1.8619    7.1874 C.ar      1 <0>        -0.0977
     42 C31        -9.8679    3.0914    1.6392 C.3       1 <0>        -0.1083
     43 H4          1.8650    5.2771    3.8395 H         1 <0>         0.0788
     44 H5          1.6143    6.0450    2.2534 H         1 <0>         0.0713
     45 H6          0.2195    5.4443    3.1818 H         1 <0>         0.0792
     46 H7         -0.1671    0.0556    1.9689 H         1 <0>         0.1192
     47 H8          1.0345   -1.3471    0.3680 H         1 <0>         0.1246
     48 H9          2.9532   -0.4507   -0.8798 H         1 <0>         0.1283
     49 H10         3.6920    1.8646   -0.5383 H         1 <0>         0.1218
     50 H11        -0.6698    1.7903    3.8239 H         1 <0>         0.0778
     51 H12        -0.3756    3.4852    4.2814 H         1 <0>         0.0714
     52 H13        -1.7288    4.2424    2.3464 H         1 <0>         0.0702
     53 H14        -2.0230    2.5475    1.8889 H         1 <0>         0.0751
     54 H15        -2.8256    2.8967    4.5741 H         1 <0>         0.3990
     55 H16        -6.5905    3.6449    2.3999 H         1 <0>         0.1000
     56 H17        -7.0047    2.2297    3.4158 H         1 <0>         0.0958
     57 H18        -6.8382    6.0027    3.7259 H         1 <0>         0.0840
     58 H19        -7.3749    5.7913    5.4214 H         1 <0>         0.0880
     59 H20        -3.4493    5.3191    4.6536 H         1 <0>         0.0988
     60 H21        -4.5606    5.9682    3.4230 H         1 <0>         0.1244
     61 H22        -3.7806    7.7515    4.9719 H         1 <0>         0.1389
     62 H23        -5.5378    7.5010    5.1016 H         1 <0>         0.1333
     63 H24        -3.5306    6.3056    6.8761 H         1 <0>         0.4273
     64 H25        -5.4268    5.7431    8.2425 H         1 <0>         0.1394
     65 H26        -6.4629    6.3724    6.9395 H         1 <0>         0.1339
     66 H27        -6.2444    3.9136    6.7690 H         1 <0>         0.1175
     67 H28        -4.4727    4.0705    6.6870 H         1 <0>         0.0968
     68 H29       -10.5793   -0.4129    4.3832 H         1 <0>         0.3708
     69 H30       -12.2904    1.1682    4.2423 H         1 <0>         0.1191
     70 H31       -14.2963    1.4766    5.6367 H         1 <0>         0.1270
     71 H32       -14.0626    2.0349    8.0235 H         1 <0>         0.1268
     72 H33       -11.8230    2.2841    9.0161 H         1 <0>         0.1253
     73 H34        -9.8170    1.9675    7.6235 H         1 <0>         0.1180
     74 H35        -8.9133    2.9631    1.1288 H         1 <0>         0.0991
     75 H36       -10.6805    2.8321    0.9604 H         1 <0>         0.0933
     76 H37        -9.9748    4.1293    1.9542 H         1 <0>         0.0895
     77 H38        -4.4355    7.6328    7.2356 H         1 <0>         0.4341
@<TRIPOS>BOND
     1    1   43 1
     2    1   44 1
     3    1   45 1
     4    1    2 1
     5    2    4 2
     6    2   11 1
     7    3   11 1
     8    4    5 1
     9    4   12 1
    10    5    6 ar
    11    5   10 ar
    12    6    7 ar
    13    6   46 1
    14    7    8 ar
    15    7   47 1
    16    8    9 ar
    17    8   48 1
    18    9   10 ar
    19    9   49 1
    20   10   11 1
    21   12   13 1
    22   12   50 1
    23   12   51 1
    24   13   14 1
    25   13   52 1
    26   13   53 1
    27   14   15 am
    28   14   54 1
    29   15   16 2
    30   15   17 1
    31   17   18 1
    32   17   22 1
    33   17   19 1
    34   19   20 1
    35   19   55 1
    36   19   56 1
    37   20   21 1
    38   20   28 am
    39   21   22 1
    40   21   57 1
    41   21   58 1
    42   22   27 1
    43   22   23 1
    44   23   24 1
    45   23   59 1
    46   23   60 1
    47   24   25 1
    48   24   61 1
    49   24   62 1
    50   25   26 1
    51   25   63 1
    52   25   77 1
    53   26   27 1
    54   26   64 1
    55   26   65 1
    56   27   66 1
    57   27   67 1
    58   28   29 2
    59   28   30 1
    60   30   34 1
    61   30   31 2
    62   31   32 1
    63   31   42 1
    64   32   33 1
    65   33   34 1
    66   33   68 1
    67   34   35 1
    68   34   36 1
    69   36   41 ar
    70   36   37 ar
    71   37   38 ar
    72   37   69 1
    73   38   39 ar
    74   38   70 1
    75   39   40 ar
    76   39   71 1
    77   40   41 ar
    78   40   72 1
    79   41   73 1
    80   42   74 1
    81   42   75 1
    82   42   76 1
@<TRIPOS>MOLECULE
ZINC63161117
   59    63     0     0     0
SMALL
USER_CHARGES

@<TRIPOS>ATOM
      1 C1         -3.7639    0.3784    1.6834 C.ar      1 <0>        -0.1468
      2 C2         -2.9767    1.5287    1.8303 C.ar      1 <0>         0.0573
      3 C3         -1.6301    1.5076    1.7381 C.ar      1 <0>        -0.2100
      4 C4         -0.9463    0.2871    1.4819 C.ar      1 <0>         0.3294
      5 N1          0.3286    0.0119    1.3497 N.pl3     1 <0>        -0.5825
      6 C5          0.4727   -1.4251    1.0915 C.3       1 <0>         0.0609
      7 C6         -0.9309   -1.9885    1.0871 C.2       1 <0>         0.0568
      8 C7         -1.7553   -0.9424    1.3229 C.ar      1 <0>        -0.1581
      9 C8         -3.2144   -0.8328    1.4381 C.ar      1 <0>        -0.0156
     10 C9         -1.3301   -3.4245    0.8644 C.3       1 <0>        -0.0915
     11 C10        -1.4377   -3.6968   -0.6373 C.3       1 <0>         0.1014
     12 H1         -2.1112   -2.9809   -1.1084 H         1 <0>         0.1410
     13 C11        -1.9067   -5.1160   -0.8897 C.2       1 <0>         0.5361
     14 O1         -2.9590   -5.6113   -0.5474 O.2       1 <0>        -0.4424
     15 N2         -0.9109   -5.7124   -1.5744 N.am      1 <0>        -0.5566
     16 C12         0.1114   -4.8761   -1.7876 C.2       1 <0>         0.7092
     17 O2          1.1243   -5.1854   -2.3837 O.2       1 <0>        -0.5095
     18 N3         -0.1078   -3.6505   -1.2691 N.am      1 <0>        -0.7332
     19 C13        -0.9435   -7.1049   -2.0286 C.3       1 <0>         0.1026
     20 C14        -1.5484   -7.1696   -3.4073 C.2       1 <0>         0.5043
     21 O3         -1.9161   -6.1527   -3.9565 O.2       1 <0>        -0.4959
     22 N4         -1.6808   -8.3575   -4.0301 N.am      1 <0>        -0.7085
     23 C15        -2.2688   -8.4203   -5.3704 C.3       1 <0>         0.1829
     24 H2         -3.3578   -8.4377   -5.3251 H         1 <0>         0.1286
     25 C16        -1.7146   -9.6182   -6.1784 C.3       1 <0>        -0.0889
     26 H3         -2.4156  -10.4500   -6.1077 H         1 <0>         0.1160
     27 C17        -1.5151   -9.2646   -7.6306 C.2       1 <0>        -0.1499
     28 C18        -1.4508   -7.9768   -7.9469 C.2       1 <0>        -0.0868
     29 S1         -1.6584   -7.0518   -6.4416 S.3       1 <0>        -0.0986
     30 C19        -1.2449   -7.3911   -9.3159 C.3       1 <0>        -0.0517
     31 C20        -0.7539   -8.4971  -10.2579 C.3       1 <0>        -0.1176
     32 C21        -1.6513   -9.7252  -10.0737 C.3       1 <0>        -0.1201
     33 C22        -1.3895  -10.3458   -8.7022 C.3       1 <0>        -0.0606
     34 C23        -0.3922  -10.0386   -5.5905 C.2       1 <0>         0.5221
     35 O4          0.6283   -9.4788   -5.9313 O.2       1 <0>        -0.5020
     36 N5         -0.3436  -11.0367   -4.6861 N.am      1 <0>        -0.8607
     37 H4         -4.8371    0.4606    1.7728 H         1 <0>         0.1600
     38 H5         -3.4676    2.4708    2.0248 H         1 <0>         0.1623
     39 H6         -1.0690    2.4224    1.8591 H         1 <0>         0.1618
     40 H7          0.9456   -1.5872    0.1229 H         1 <0>         0.1659
     41 H8          1.0622   -1.8914    1.8808 H         1 <0>         0.1782
     42 H9         -3.8400   -1.7064    1.3288 H         1 <0>         0.1646
     43 H10        -0.5781   -4.0824    1.3000 H         1 <0>         0.1253
     44 H11        -2.2941   -3.6111    1.3375 H         1 <0>         0.1379
     45 H12         0.4909   -2.8881   -1.3043 H         1 <0>         0.4356
     46 H13         0.0715   -7.5012   -2.0582 H         1 <0>         0.1357
     47 H14        -1.5451   -7.6978   -1.3397 H         1 <0>         0.1348
     48 H15        -1.3867   -9.1708   -3.5909 H         1 <0>         0.4071
     49 H16        -2.1873   -6.9875   -9.6862 H         1 <0>         0.0870
     50 H17        -0.4999   -6.5970   -9.2653 H         1 <0>         0.0824
     51 H18        -0.8127   -8.1519  -11.2901 H         1 <0>         0.0753
     52 H19         0.2762   -8.7561  -10.0132 H         1 <0>         0.0692
     53 H20        -2.6969   -9.4249  -10.1429 H         1 <0>         0.0677
     54 H21        -1.4309  -10.4563  -10.8515 H         1 <0>         0.0723
     55 H22        -0.3843  -10.7667   -8.6790 H         1 <0>         0.0751
     56 H23        -2.1195  -11.1328   -8.5130 H         1 <0>         0.0733
     57 H24        -1.1482  -11.5321   -4.4668 H         1 <0>         0.4028
     58 H25         0.4960  -11.2596   -4.2545 H         1 <0>         0.4070
     59 H26         1.0552    0.6516    1.4119 H         1 <0>         0.4574
@<TRIPOS>BOND
     1    1    9 ar
     2    1    2 ar
     3    1   37 1
     4    2    3 ar
     5    2   38 1
     6    3    4 ar
     7    3   39 1
     8    4    8 ar
     9    4    5 2
    10    5    6 1
    11    5   59 1
    12    6    7 1
    13    6   40 1
    14    6   41 1
    15    7    8 2
    16    7   10 1
    17    8    9 ar
    18    9   42 1
    19   10   11 1
    20   10   43 1
    21   10   44 1
    22   11   12 1
    23   11   18 1
    24   11   13 1
    25   13   14 2
    26   13   15 am
    27   15   16 am
    28   15   19 1
    29   16   17 2
    30   16   18 am
    31   18   45 1
    32   19   20 1
    33   19   46 1
    34   19   47 1
    35   20   21 2
    36   20   22 am
    37   22   23 1
    38   22   48 1
    39   23   24 1
    40   23   29 1
    41   23   25 1
    42   25   26 1
    43   25   27 1
    44   25   34 1
    45   27   33 1
    46   27   28 2
    47   28   29 1
    48   28   30 1
    49   30   31 1
    50   30   49 1
    51   30   50 1
    52   31   32 1
    53   31   51 1
    54   31   52 1
    55   32   33 1
    56   32   53 1
    57   32   54 1
    58   33   55 1
    59   33   56 1
    60   34   35 2
    61   34   36 am
    62   36   57 1
    63   36   58 1
@<TRIPOS>MOLECULE
ZINC03310473
   44    47     0     0     0
SMALL
USER_CHARGES
4-[[4-amino-5-[(2-fluorophenyl)methyl]-1,2,4-triazol-3-yl]sulfanylmethyl]-6,7-dihydroxy-chromen-2-one
@<TRIPOS>ATOM
      1 C1          1.1705    2.0858    0.0021 C.ar      1 <0>        -0.1320
      2 C2          2.3781    1.4125   -0.0130 C.ar      1 <0>        -0.0859
      3 C3          2.3993    0.0309   -0.0206 C.ar      1 <0>        -0.1604
      4 C4          1.2105   -0.6793   -0.0131 C.ar      1 <0>         0.1128
      5 C5          0.0021   -0.0041    0.0020 C.ar      1 <0>        -0.1262
      6 C6         -0.0167    1.3780    0.0096 C.ar      1 <0>        -0.0732
      7 C7         -1.2924   -0.7755    0.0107 C.3       1 <0>         0.0138
      8 C8         -1.6115   -1.2371   -1.3879 C.2       1 <0>         0.2286
      9 N1         -2.3107   -0.5873   -2.2749 N.2       1 <0>        -0.2702
     10 N2         -2.3851   -1.2675   -3.3628 N.2       1 <0>        -0.2728
     11 C9         -1.7398   -2.4023   -3.2242 C.2       1 <0>         0.1101
     12 N3         -1.2259   -2.4183   -1.9593 N.pl3     1 <0>        -0.2979
     13 N4         -0.4816   -3.4086   -1.3838 N.3       1 <0>        -0.5745
     14 S1         -1.5691   -3.6658   -4.4404 S.3       1 <0>         0.0200
     15 C10        -2.5007   -2.9201   -5.8013 C.3       1 <0>        -0.0755
     16 C11        -2.4905   -3.8509   -6.9864 C.2       1 <0>         0.0302
     17 C12        -3.4608   -4.7886   -7.1454 C.2       1 <0>        -0.2104
     18 C13        -3.4292   -5.6473   -8.2630 C.2       1 <0>         0.5111
     19 O1         -4.3049   -6.4838   -8.3934 O.2       1 <0>        -0.4481
     20 O2         -2.4591   -5.5670   -9.1866 O.3       1 <0>        -0.2653
     21 C14        -1.4649   -4.6574   -9.0885 C.ar      1 <0>         0.1609
     22 C15        -1.4381   -3.7651   -8.0009 C.ar      1 <0>        -0.1414
     23 C16        -0.4139   -2.8163   -7.8966 C.ar      1 <0>        -0.0664
     24 C17         0.5631   -2.7585   -8.8670 C.ar      1 <0>         0.0682
     25 C18         0.5315   -3.6420   -9.9498 C.ar      1 <0>         0.1460
     26 C19        -0.4714   -4.5900  -10.0540 C.ar      1 <0>        -0.1472
     27 O3          1.4988   -3.5771  -10.9009 O.3       1 <0>        -0.4778
     28 O4          1.5607   -1.8388   -8.7711 O.3       1 <0>        -0.4790
     29 F1          1.2300   -2.0302   -0.0201 F         1 <0>        -0.1214
     30 H1          1.1549    3.1657    0.0077 H         1 <0>         0.1321
     31 H2          3.3051    1.9666   -0.0189 H         1 <0>         0.1330
     32 H3          3.3426   -0.4948   -0.0328 H         1 <0>         0.1349
     33 H4         -0.9593    1.9050    0.0169 H         1 <0>         0.1369
     34 H5         -1.1950   -1.6413    0.6657 H         1 <0>         0.1026
     35 H6         -2.0954   -0.1339    0.3736 H         1 <0>         0.1154
     36 H7         -1.0725   -4.0802   -0.9169 H         1 <0>         0.3677
     37 H8          0.1094   -3.8596   -2.0660 H         1 <0>         0.3764
     38 H9         -3.5291   -2.7457   -5.4850 H         1 <0>         0.1276
     39 H10        -2.0406   -1.9720   -6.0799 H         1 <0>         0.1234
     40 H11        -4.2541   -4.8756   -6.4178 H         1 <0>         0.1726
     41 H12        -0.3894   -2.1336   -7.0601 H         1 <0>         0.1505
     42 H13        -0.4874   -5.2690  -10.8937 H         1 <0>         0.1587
     43 H14         2.2670   -4.1358  -10.7194 H         1 <0>         0.3995
     44 H15         2.3373   -2.1501   -8.2862 H         1 <0>         0.3923
@<TRIPOS>BOND
     1    1    6 ar
     2    1    2 ar
     3    1   30 1
     4    2    3 ar
     5    2   31 1
     6    3    4 ar
     7    3   32 1
     8    4    5 ar
     9    4   29 1
    10    5    6 ar
    11    5    7 1
    12    6   33 1
    13    7    8 1
    14    7   34 1
    15    7   35 1
    16    8   12 1
    17    8    9 2
    18    9   10 1
    19   10   11 2
    20   11   12 1
    21   11   14 1
    22   12   13 1
    23   13   36 1
    24   13   37 1
    25   14   15 1
    26   15   16 1
    27   15   38 1
    28   15   39 1
    29   16   22 1
    30   16   17 2
    31   17   18 1
    32   17   40 1
    33   18   19 2
    34   18   20 1
    35   20   21 1
    36   21   26 ar
    37   21   22 ar
    38   22   23 ar
    39   23   24 ar
    40   23   41 1
    41   24   25 ar
    42   24   28 1
    43   25   26 ar
    44   25   27 1
    45   26   42 1
    46   27   43 1
    47   28   44 1
@<TRIPOS>MOLECULE
ZINC28807115
   44    47     0     0     0
SMALL
USER_CHARGES
2-[[2-[[5-(4-chlorophenyl)-4H-1,2,4-triazol-3-yl]sulfanyl]acetyl]amino]-5,6-dihydro-4H-cyclopenta[b]thiophene-3-carboxamide
@<TRIPOS>ATOM
      1 C1         -1.0811    3.5601    0.0361 C.ar      1 <0>        -0.0657
      2 C2         -2.2051    4.3596    0.0460 C.ar      1 <0>        -0.1124
      3 C3         -3.4657    3.7864    0.0546 C.ar      1 <0>        -0.0217
      4 C4         -3.6062    2.4088    0.0481 C.ar      1 <0>        -0.1132
      5 C5         -2.4896    1.5991    0.0333 C.ar      1 <0>        -0.0723
      6 C6         -1.2164    2.1709    0.0245 C.ar      1 <0>        -0.0057
      7 C7         -0.0157    1.3085    0.0092 C.2       1 <0>         0.2397
      8 N1          1.2939    1.7301   -0.0010 N.2       1 <0>        -0.4686
      9 H1          1.4221   -1.5067   -0.0189 H         1 <0>         0.4752
     10 C8          2.0476    0.5912   -0.0143 C.2       1 <0>         0.1685
     11 N2          1.2157   -0.4263   -0.0113 N.pl3     1 <0>        -0.3921
     12 N3          0.0021   -0.0041    0.0027 N.2       1 <0>        -0.3142
     13 S1          3.8073    0.5026   -0.0321 S.3       1 <0>         0.1416
     14 C9          4.0314   -1.2934   -0.0436 C.3       1 <0>        -0.1908
     15 C10         5.5035   -1.6158   -0.0598 C.2       1 <0>         0.5361
     16 O1          6.3205   -0.7196   -0.0632 O.2       1 <0>        -0.4795
     17 N4          5.9119   -2.9001   -0.0704 N.am      1 <0>        -0.6246
     18 C11         7.2664   -3.1968   -0.0853 C.2       1 <0>         0.0661
     19 C12         7.8747   -4.4403   -0.0921 C.2       1 <0>        -0.2066
     20 C13         9.3365   -4.4790   -0.1122 C.2       1 <0>        -0.0978
     21 C14         9.9397   -3.2766   -0.1122 C.2       1 <0>        -0.2314
     22 S2          8.6071   -2.1024   -0.0923 S.3       1 <0>         0.2615
     23 C15        11.4394   -3.3979   -0.1305 C.3       1 <0>        -0.0377
     24 C16        11.7068   -4.8516   -0.5790 C.3       1 <0>        -0.1126
     25 C17        10.4157   -5.5624   -0.1267 C.3       1 <0>        -0.0565
     26 C18         7.0821   -5.6738   -0.0836 C.2       1 <0>         0.5825
     27 O2          6.7420   -6.1859   -1.1341 O.2       1 <0>        -0.5423
     28 N5          6.7302   -6.2406    1.0874 N.am      1 <0>        -0.8705
     29 Cl1        -4.8757    4.7991    0.0743 Cl        1 <0>        -0.0641
     30 H2         -0.0985    4.0081    0.0339 H         1 <0>         0.1447
     31 H3         -2.1018    5.4346    0.0512 H         1 <0>         0.1411
     32 H4         -4.5919    1.9676    0.0548 H         1 <0>         0.1401
     33 H5         -2.6004    0.5248    0.0288 H         1 <0>         0.1407
     34 H6          3.5534   -1.7169   -0.9393 H         1 <0>         0.1319
     35 H7          3.5711   -1.7262    0.8569 H         1 <0>         0.1315
     36 H8          5.1708   -3.7130   -0.0672 H         1 <0>         0.4478
     37 H9         11.8577   -2.6674   -0.8386 H         1 <0>         0.0800
     38 H10        11.8356   -3.2007    0.8766 H         1 <0>         0.0856
     39 H11        11.8564   -4.8775   -1.6685 H         1 <0>         0.0786
     40 H12        12.6087   -5.2305   -0.0759 H         1 <0>         0.0856
     41 H13        10.5230   -5.9865    0.8826 H         1 <0>         0.0812
     42 H14        10.1275   -6.3577   -0.8299 H         1 <0>         0.0742
     43 H15         6.1356   -7.1660    1.0938 H         1 <0>         0.4234
     44 H16         7.0376   -5.7778    2.0368 H         1 <0>         0.4225
@<TRIPOS>BOND
     1    1    6 ar
     2    1    2 ar
     3    1   30 1
     4    2    3 ar
     5    2   31 1
     6    3    4 ar
     7    3   29 1
     8    4    5 ar
     9    4   32 1
    10    5    6 ar
    11    5   33 1
    12    6    7 1
    13    7    8 1
    14    7   12 2
    15    8   10 2
    16    9   11 1
    17   10   13 1
    18   10   11 1
    19   11   12 1
    20   13   14 1
    21   14   15 1
    22   14   34 1
    23   14   35 1
    24   15   16 2
    25   15   17 am
    26   17   18 1
    27   17   36 1
    28   18   22 1
    29   18   19 2
    30   19   20 1
    31   19   26 1
    32   20   25 1
    33   20   21 2
    34   21   22 1
    35   21   23 1
    36   23   24 1
    37   23   37 1
    38   23   38 1
    39   24   25 1
    40   24   39 1
    41   24   40 1
    42   25   41 1
    43   25   42 1
    44   26   27 2
    45   26   28 am
    46   28   43 1
    47   28   44 1
@<TRIPOS>MOLECULE
ZINC39016685
   56    59     0     0     0
SMALL
USER_CHARGES

@<TRIPOS>ATOM
      1 C1         -2.3832   -0.5691    1.3608 C.3       1 <0>        -0.1121
      2 C2         -1.1258   -0.9950    0.6476 C.ar      1 <0>        -0.0639
      3 C3         -1.2080   -1.7168   -0.5273 C.ar      1 <0>        -0.1185
      4 C4         -0.0548   -2.1079   -1.1822 C.ar      1 <0>        -0.1075
      5 C5          1.1842   -1.7776   -0.6640 C.ar      1 <0>        -0.1144
      6 C6          1.2731   -1.0558    0.5098 C.ar      1 <0>        -0.0691
      7 C7          0.1166   -0.6573    1.1677 C.ar      1 <0>         0.1290
      8 N1          0.2032    0.0788    2.3545 N.am      1 <0>        -0.6719
      9 C8         -0.2174    1.3589    2.3858 C.2       1 <0>         0.5373
     10 O1         -0.7580    1.8435    1.4142 O.2       1 <0>        -0.5004
     11 C9         -0.0159    2.1881    3.6279 C.3       1 <0>        -0.1409
     12 S1         -0.6834    3.8531    3.3583 S.3       1 <0>         0.0599
     13 C10        -0.3754    4.6873    4.8794 C.2       1 <0>         0.2529
     14 N2          0.2077    4.1463    5.8951 N.2       1 <0>        -0.2997
     15 N3          0.3167    5.0454    6.9630 N.pl3     1 <0>        -0.6528
     16 C11        -0.2953    6.3041    6.5035 C.3       1 <0>         0.4362
     17 H1         -1.1506    6.5636    7.1273 H         1 <0>         0.0894
     18 N4         -0.7255    6.0064    5.1268 N.pl3     1 <0>        -0.4731
     19 N5         -1.3495    6.8614    4.2633 N.3       1 <0>        -0.5625
     20 C12         0.7347    7.4354    6.5096 C.3       1 <0>        -0.0400
     21 H2          0.2940    8.3589    6.1339 H         1 <0>         0.1561
     22 C13         1.3013    7.6379    7.8998 C.2       1 <0>        -0.1595
     23 C14         2.6034    7.3874    7.7753 C.2       1 <0>        -0.0582
     24 C15         3.2909    7.5575    9.1183 C.3       1 <0>        -0.0494
     25 C16         2.2950    8.3629    9.9811 C.3       1 <0>        -0.1186
     26 C17         0.9458    8.0059    9.3170 C.3       1 <0>        -0.0594
     27 N6          2.8910    7.0612    6.4858 N.2       1 <0>        -0.1575
     28 N7          1.9216    7.0648    5.7200 N.2       1 <0>        -0.1218
     29 C18         2.6236   -0.6967    1.0740 C.3       1 <0>        -0.0577
     30 C19         3.4106   -1.9758    1.3667 C.3       1 <0>        -0.1445
     31 C20         3.3908    0.1531    0.0591 C.3       1 <0>        -0.1440
     32 H3         -2.7586    0.3526    0.9162 H         1 <0>         0.0792
     33 H4         -3.1367   -1.3510    1.2668 H         1 <0>         0.0666
     34 H5         -2.1636   -0.4008    2.4151 H         1 <0>         0.0587
     35 H6         -2.1740   -1.9763   -0.9345 H         1 <0>         0.1260
     36 H7         -0.1218   -2.6728   -2.1002 H         1 <0>         0.1255
     37 H8          2.0831   -2.0849   -1.1778 H         1 <0>         0.1260
     38 H9          0.5661   -0.3322    3.1547 H         1 <0>         0.4105
     39 H10        -0.5339    1.7202    4.4651 H         1 <0>         0.1254
     40 H11         1.0488    2.2553    3.8512 H         1 <0>         0.1279
     41 H12         0.7146    4.8737    7.8308 H         1 <0>         0.4458
     42 H13        -1.5394    6.4097    3.3813 H         1 <0>         0.3675
     43 H14        -2.1956    7.2317    4.6695 H         1 <0>         0.3394
     44 H15         3.4831    6.5847    9.5709 H         1 <0>         0.0874
     45 H16         4.2223    8.1111    8.9992 H         1 <0>         0.0836
     46 H17         2.3196    8.0300   11.0187 H         1 <0>         0.0886
     47 H18         2.4938    9.4323    9.9110 H         1 <0>         0.0796
     48 H19         0.2772    8.8667    9.3293 H         1 <0>         0.0845
     49 H20         0.4850    7.1588    9.8251 H         1 <0>         0.0898
     50 H21         2.4933   -0.1312    1.9967 H         1 <0>         0.0756
     51 H22         2.8640   -2.5812    2.0898 H         1 <0>         0.0552
     52 H23         3.5409   -2.5413    0.4440 H         1 <0>         0.0588
     53 H24         4.3874   -1.7161    1.7748 H         1 <0>         0.0600
     54 H25         2.8302    1.0643   -0.1494 H         1 <0>         0.0563
     55 H26         4.3676    0.4128    0.4671 H         1 <0>         0.0599
     56 H27         3.5212   -0.4124   -0.8636 H         1 <0>         0.0583
@<TRIPOS>BOND
     1    1    2 1
     2    1   32 1
     3    1   33 1
     4    1   34 1
     5    2    7 ar
     6    2    3 ar
     7    3    4 ar
     8    3   35 1
     9    4    5 ar
    10    4   36 1
    11    5    6 ar
    12    5   37 1
    13    6    7 ar
    14    6   29 1
    15    7    8 1
    16    8    9 am
    17    8   38 1
    18    9   10 2
    19    9   11 1
    20   11   12 1
    21   11   39 1
    22   11   40 1
    23   12   13 1
    24   13   18 1
    25   13   14 2
    26   14   15 1
    27   15   16 1
    28   15   41 1
    29   16   17 1
    30   16   18 1
    31   16   20 1
    32   18   19 1
    33   19   42 1
    34   19   43 1
    35   20   21 1
    36   20   28 1
    37   20   22 1
    38   22   26 1
    39   22   23 2
    40   23   24 1
    41   23   27 1
    42   24   25 1
    43   24   44 1
    44   24   45 1
    45   25   26 1
    46   25   46 1
    47   25   47 1
    48   26   48 1
    49   26   49 1
    50   27   28 2
    51   29   30 1
    52   29   31 1
    53   29   50 1
    54   30   51 1
    55   30   52 1
    56   30   53 1
    57   31   54 1
    58   31   55 1
    59   31   56 1
@<TRIPOS>MOLECULE
ZINC40735193
   60    63     0     0     0
SMALL
USER_CHARGES

@<TRIPOS>ATOM
      1 C1          0.3899    0.1697    1.9818 C.3       1 <0>        -0.1320
      2 C2         -0.0161   -1.2924    1.7404 C.3       1 <0>        -0.0701
      3 C3          0.9480   -2.0196    0.7634 C.3       1 <0>        -0.1260
      4 C4          0.0476   -3.2111    0.3513 C.3       1 <0>         0.1530
      5 H1          0.3951   -3.6778   -0.5793 H         1 <0>         0.0993
      6 C5          0.0354   -4.1945    1.5190 C.3       1 <0>        -0.1160
      7 C6         -0.3959   -3.5793    2.8378 C.3       1 <0>        -0.0504
      8 C7         -0.0601   -2.1123    3.0285 C.3       1 <0>        -0.0954
      9 C8          0.3261   -4.3628    3.9629 C.3       1 <0>        -0.1477
     10 C9         -1.9001   -3.8066    3.0492 C.3       1 <0>        -0.1428
     11 N1         -1.3009   -2.6312    0.1932 N.pl3     1 <0>        -0.5923
     12 C10        -1.3742   -1.4124    1.0135 C.3       1 <0>         0.1214
     13 C11        -2.3219   -3.1402   -0.6005 C.ar      1 <0>         0.4528
     14 C12        -3.5910   -2.5587   -0.5822 C.ar      1 <0>        -0.0178
     15 C13        -4.5799   -3.1089   -1.3990 C.ar      1 <0>         0.4149
     16 N2         -4.2779   -4.1593   -2.1587 N.ar      1 <0>        -0.5958
     17 C14        -3.0669   -4.6782   -2.1463 C.ar      1 <0>         0.3483
     18 N3         -2.1034   -4.1861   -1.3939 N.ar      1 <0>        -0.5817
     19 N4         -5.8603   -2.5688   -1.4185 N.pl3     1 <0>        -0.5091
     20 N5         -6.8448   -3.1297   -2.2425 N.am      1 <0>        -0.5072
     21 C15        -8.0864   -2.6059   -2.2614 C.2       1 <0>         0.5127
     22 O1         -8.3515   -1.6489   -1.5651 O.2       1 <0>        -0.5190
     23 C16        -9.1454   -3.2092   -3.1478 C.3       1 <0>         0.0547
     24 O2        -10.3667   -2.4839   -2.9923 O.3       1 <0>        -0.2893
     25 C17       -11.4306   -2.9022   -3.7271 C.ar      1 <0>         0.1260
     26 C18       -11.3033   -3.9921   -4.5760 C.ar      1 <0>        -0.2108
     27 C19       -12.3864   -4.4157   -5.3215 C.ar      1 <0>        -0.0795
     28 C20       -13.5965   -3.7541   -5.2226 C.ar      1 <0>        -0.1558
     29 C21       -13.7258   -2.6674   -4.3776 C.ar      1 <0>        -0.0791
     30 C22       -12.6474   -2.2437   -3.6253 C.ar      1 <0>        -0.1465
     31 N6         -3.8651   -1.4505    0.2361 N.pl3     1 <0>        -0.8940
     32 H2          1.3820    0.2017    2.4320 H         1 <0>         0.0649
     33 H3          0.4044    0.7043    1.0320 H         1 <0>         0.0613
     34 H4         -0.3289    0.6403    2.6526 H         1 <0>         0.0606
     35 H5          1.1937   -1.3911   -0.0921 H         1 <0>         0.0748
     36 H6          1.8489   -2.3586    1.2742 H         1 <0>         0.0875
     37 H7         -0.6346   -5.0325    1.2780 H         1 <0>         0.0655
     38 H8          1.0433   -4.6208    1.6368 H         1 <0>         0.0688
     39 H9          0.9156   -2.0326    3.5336 H         1 <0>         0.0649
     40 H10        -0.7990   -1.6632    3.7112 H         1 <0>         0.0624
     41 H11         1.4047   -4.2753    3.8322 H         1 <0>         0.0542
     42 H12         0.0429   -3.9512    4.9317 H         1 <0>         0.0533
     43 H13         0.0385   -5.4132    3.9163 H         1 <0>         0.0537
     44 H14        -2.1071   -4.8766    3.0653 H         1 <0>         0.0495
     45 H15        -2.2048   -3.3632    3.9971 H         1 <0>         0.0499
     46 H16        -2.4557   -3.3412    2.2351 H         1 <0>         0.0601
     47 H17        -2.1922   -1.4689    1.7241 H         1 <0>         0.0829
     48 H18        -1.5186   -0.5450    0.3620 H         1 <0>         0.0570
     49 H19        -2.8563   -5.5308   -2.7750 H         1 <0>         0.1965
     50 H20        -6.0723   -1.8034   -0.8616 H         1 <0>         0.4404
     51 H21        -6.6328   -3.8951   -2.7994 H         1 <0>         0.4346
     52 H22        -8.8219   -3.1574   -4.1874 H         1 <0>         0.1003
     53 H23        -9.3032   -4.2508   -2.8679 H         1 <0>         0.1003
     54 H24       -10.3581   -4.5087   -4.6542 H         1 <0>         0.1286
     55 H25       -12.2878   -5.2640   -5.9825 H         1 <0>         0.1268
     56 H26       -14.4420   -4.0866   -5.8065 H         1 <0>         0.1254
     57 H27       -14.6720   -2.1521   -4.3023 H         1 <0>         0.1315
     58 H28       -12.7502   -1.3975   -2.9621 H         1 <0>         0.1329
     59 H29        -3.1829   -0.7774    0.3856 H         1 <0>         0.3976
     60 H30        -4.7367   -1.3583    0.6517 H         1 <0>         0.3886
@<TRIPOS>BOND
     1    1    2 1
     2    1   32 1
     3    1   33 1
     4    1   34 1
     5    2    8 1
     6    2   12 1
     7    2    3 1
     8    3    4 1
     9    3   35 1
    10    3   36 1
    11    4    5 1
    12    4    6 1
    13    4   11 1
    14    6    7 1
    15    6   37 1
    16    6   38 1
    17    7    8 1
    18    7    9 1
    19    7   10 1
    20    8   39 1
    21    8   40 1
    22    9   41 1
    23    9   42 1
    24    9   43 1
    25   10   44 1
    26   10   45 1
    27   10   46 1
    28   11   12 1
    29   11   13 1
    30   12   47 1
    31   12   48 1
    32   13   18 ar
    33   13   14 ar
    34   14   15 ar
    35   14   31 1
    36   15   16 ar
    37   15   19 1
    38   16   17 ar
    39   17   18 ar
    40   17   49 1
    41   19   20 1
    42   19   50 1
    43   20   21 am
    44   20   51 1
    45   21   22 2
    46   21   23 1
    47   23   24 1
    48   23   52 1
    49   23   53 1
    50   24   25 1
    51   25   30 ar
    52   25   26 ar
    53   26   27 ar
    54   26   54 1
    55   27   28 ar
    56   27   55 1
    57   28   29 ar
    58   28   56 1
    59   29   30 ar
    60   29   57 1
    61   30   58 1
    62   31   59 1
    63   31   60 1
@<TRIPOS>MOLECULE
ZINC59816027
   42    43     0     0     0
SMALL
USER_CHARGES

@<TRIPOS>ATOM
      1 C1         -0.0187    1.5258    0.0104 C.3       1 <0>        -0.1431
      2 C2          0.0021   -0.0041    0.0020 C.3       1 <0>        -0.1244
      3 H1         -1.0205   -0.3814    0.0098 H         1 <0>         0.1180
      4 C3          0.7309   -0.5033    1.2229 C.2       1 <0>         0.5384
      5 O1          1.9109   -0.7754    1.1557 O.2       1 <0>        -0.5172
      6 N1          0.0715   -0.6474    2.3895 N.am      1 <0>        -0.7201
      7 C4          0.7801   -1.1327    3.5763 C.3       1 <0>         0.1467
      8 C5         -0.1764   -1.2027    4.7388 C.2       1 <0>        -0.1827
      9 C6         -0.3271   -2.3257    5.3963 C.2       1 <0>        -0.1591
     10 S1          0.8511   -0.5891   -1.4904 S.3       1 <0>         0.1061
     11 C7         -0.1893   -0.0568   -2.8091 C.2       1 <0>         0.2203
     12 N2          0.0346   -0.2704   -4.1101 N.2       1 <0>        -0.5127
     13 C8         -0.9392    0.2601   -4.8199 C.2       1 <0>         0.5604
     14 N3         -1.8149    0.8306   -3.9653 N.pl3     1 <0>        -0.5047
     15 N4         -1.3118    0.6084   -2.6733 N.2       1 <0>        -0.3211
     16 N5         -1.0460    0.2373   -6.1982 N.pl3     1 <0>        -0.5513
     17 N6         -0.0591   -0.3936   -6.9669 N.2       1 <0>        -0.1707
     18 C9         -0.1594   -0.4151   -8.2612 C.2       1 <0>         0.0950
     19 C10         0.8787   -1.0787   -9.0699 C.ar      1 <0>        -0.0768
     20 C11         0.7776   -1.0990  -10.4627 C.ar      1 <0>        -0.0465
     21 C12         1.7534   -1.7218  -11.2139 C.ar      1 <0>        -0.1084
     22 C13         2.8330   -2.3269  -10.5919 C.ar      1 <0>        -0.0571
     23 C14         2.9433   -2.3135   -9.2141 C.ar      1 <0>        -0.1454
     24 C15         1.9757   -1.6879   -8.4457 C.ar      1 <0>         0.1661
     25 O2          2.0867   -1.6696   -7.0919 O.3       1 <0>        -0.4672
     26 Br1         1.6159   -1.7496  -13.0997 Br        1 <0>        -0.0411
     27 H2          1.0039    1.9031    0.0027 H         1 <0>         0.0751
     28 H3         -0.5459    1.8868   -0.8726 H         1 <0>         0.0822
     29 H4         -0.5289    1.8773    0.9072 H         1 <0>         0.0704
     30 H5         -0.8722   -0.4298    2.4432 H         1 <0>         0.4043
     31 H6          1.1839   -2.1254    3.3778 H         1 <0>         0.0758
     32 H7          1.5952   -0.4503    3.8172 H         1 <0>         0.0797
     33 H8         -0.7377   -0.3271    5.0298 H         1 <0>         0.1166
     34 H9          0.2342   -3.2013    5.1053 H         1 <0>         0.1018
     35 H10        -1.0125   -2.3759    6.2293 H         1 <0>         0.1052
     36 H11        -1.8042    0.6580   -6.6330 H         1 <0>         0.3989
     37 H12        -1.0036    0.0535   -8.7453 H         1 <0>         0.1251
     38 H13        -0.0630   -0.6284  -10.9510 H         1 <0>         0.1420
     39 H14         3.5926   -2.8123  -11.1868 H         1 <0>         0.1404
     40 H15         3.7878   -2.7878   -8.7363 H         1 <0>         0.1444
     41 H16         1.6703   -2.4238   -6.6529 H         1 <0>         0.3984
     42 H17        -2.6319    1.2990   -4.1977 H         1 <0>         0.4384
@<TRIPOS>BOND
     1    1    2 1
     2    1   27 1
     3    1   28 1
     4    1   29 1
     5    2    3 1
     6    2    4 1
     7    2   10 1
     8    4    5 2
     9    4    6 am
    10    6    7 1
    11    6   30 1
    12    7    8 1
    13    7   31 1
    14    7   32 1
    15    8    9 2
    16    8   33 1
    17    9   34 1
    18    9   35 1
    19   10   11 1
    20   11   15 2
    21   11   12 1
    22   12   13 2
    23   13   14 1
    24   13   16 1
    25   14   15 1
    26   14   42 1
    27   16   17 1
    28   16   36 1
    29   17   18 2
    30   18   19 1
    31   18   37 1
    32   19   24 ar
    33   19   20 ar
    34   20   21 ar
    35   20   38 1
    36   21   22 ar
    37   21   26 1
    38   22   23 ar
    39   22   39 1
    40   23   24 ar
    41   23   40 1
    42   24   25 1
    43   25   41 1
@<TRIPOS>MOLECULE
ZINC04349412
   71    75     0     0     0
SMALL
USER_CHARGES
5-hydroxy-2-(4-hydroxyphenyl)-7-[3,4,5-trihydroxy-6-[(3,4,5-trihydroxy-6-methyl-tetrahydropyran-2-yl)oxymethyl]tetrahydropyran-2-yl]oxy-chromen-4-one
@<TRIPOS>ATOM
      1 C1         -4.2550    0.7616   -4.7736 C.3       1 <0>        -0.1532
      2 C2         -2.8352    1.3273   -4.8448 C.3       1 <0>         0.0680
      3 H1         -2.8800    2.4144   -4.9096 H         1 <0>         0.0792
      4 C3         -2.1252    0.7706   -6.0815 C.3       1 <0>         0.0836
      5 H2         -2.6511    1.0939   -6.9799 H         1 <0>         0.0846
      6 C4         -0.6859    1.2937   -6.1131 C.3       1 <0>         0.1233
      7 H3         -0.1577    0.8568   -6.9606 H         1 <0>         0.0837
      8 C5          0.0181    0.8983   -4.8115 C.3       1 <0>         0.0631
      9 H4          0.0705   -0.1882   -4.7412 H         1 <0>         0.0904
     10 C6         -0.7747    1.4501   -3.6237 C.3       1 <0>         0.2357
     11 H5         -0.7923    2.5389   -3.6725 H         1 <0>         0.0669
     12 O1         -2.1122    0.9492   -3.6715 O.3       1 <0>        -0.3894
     13 O2         -0.1547    1.0377   -2.4040 O.3       1 <0>        -0.3620
     14 C7         -0.7532    1.5929   -1.2311 C.3       1 <0>         0.0806
     15 C8         -0.0127    1.0858    0.0080 C.3       1 <0>         0.1104
     16 H6          0.0021   -0.0041    0.0020 H         1 <0>         0.0885
     17 C9         -0.7280    1.5798    1.2682 C.3       1 <0>         0.0913
     18 H7         -0.7789    2.6685    1.2551 H         1 <0>         0.0821
     19 C10         0.0527    1.1187    2.5029 C.3       1 <0>         0.0861
     20 H8          0.0615    0.0295    2.5445 H         1 <0>         0.0807
     21 C11         1.4901    1.6395    2.4084 C.3       1 <0>         0.0614
     22 H9          1.4850    2.7294    2.4188 H         1 <0>         0.0900
     23 C12         2.1197    1.1432    1.1041 C.3       1 <0>         0.2238
     24 H10         2.1625    0.0541    1.1124 H         1 <0>         0.0844
     25 O3          1.3279    1.5807   -0.0021 O.3       1 <0>        -0.3728
     26 O4          3.4419    1.6713    0.9821 O.3       1 <0>        -0.2853
     27 C13         4.1813    1.2439   -0.0731 C.ar      1 <0>         0.2072
     28 C14         3.6369    0.3321   -0.9712 C.ar      1 <0>        -0.2433
     29 C15         4.3811   -0.1097   -2.0493 C.ar      1 <0>         0.2392
     30 C16         5.6854    0.3677   -2.2290 C.ar      1 <0>        -0.2830
     31 C17         6.5125   -0.0762   -3.3638 C.2       1 <0>         0.4242
     32 O5          6.0880   -0.8742   -4.1839 O.2       1 <0>        -0.4545
     33 C18         7.8184    0.4589   -3.4665 C.2       1 <0>        -0.3090
     34 C19         8.2548    1.3463   -2.5325 C.2       1 <0>         0.2071
     35 O6          7.4912    1.7434   -1.5022 O.3       1 <0>        -0.2172
     36 C20         6.2332    1.2890   -1.3200 C.ar      1 <0>         0.2012
     37 C21         5.4696    1.7247   -0.2482 C.ar      1 <0>        -0.1840
     38 C22         9.6189    1.8936   -2.6568 C.ar      1 <0>        -0.0837
     39 C23        10.4401    1.4955   -3.7155 C.ar      1 <0>        -0.0617
     40 C24        11.7109    2.0138   -3.8312 C.ar      1 <0>        -0.1473
     41 C25        12.1813    2.9221   -2.8904 C.ar      1 <0>         0.1351
     42 C26        11.3705    3.3159   -1.8327 C.ar      1 <0>        -0.1496
     43 C27        10.0962    2.8074   -1.7129 C.ar      1 <0>        -0.0608
     44 O7         13.4368    3.4258   -3.0048 O.3       1 <0>        -0.4969
     45 O8          3.8518   -0.9997   -2.9265 O.3       1 <0>        -0.4706
     46 O9          2.2475    1.1549    3.5190 O.3       1 <0>        -0.5521
     47 O10        -0.5671    1.6372    3.6814 O.3       1 <0>        -0.5524
     48 O11        -2.0501    1.0392    1.3098 O.3       1 <0>        -0.5465
     49 O12         1.3391    1.4432   -4.7984 O.3       1 <0>        -0.5569
     50 O13        -0.6973    2.7171   -6.2392 O.3       1 <0>        -0.5588
     51 O14        -2.1132   -0.6572   -6.0231 O.3       1 <0>        -0.5506
     52 H11        -4.7601    1.1572   -3.8924 H         1 <0>         0.0733
     53 H12        -4.8064    1.0500   -5.6685 H         1 <0>         0.0782
     54 H13        -4.2101   -0.3256   -4.7091 H         1 <0>         0.0685
     55 H14        -1.7989    1.2901   -1.1788 H         1 <0>         0.0950
     56 H15        -0.6914    2.6804   -1.2717 H         1 <0>         0.0625
     57 H16         2.6302   -0.0313   -0.8262 H         1 <0>         0.1508
     58 H17         8.4642    0.1646   -4.2805 H         1 <0>         0.1628
     59 H18         5.8801    2.4359    0.4533 H         1 <0>         0.1549
     60 H19        10.0768    0.7863   -4.4445 H         1 <0>         0.1413
     61 H20        12.3444    1.7102   -4.6514 H         1 <0>         0.1410
     62 H21        11.7400    4.0220   -1.1038 H         1 <0>         0.1390
     63 H22         9.4664    3.1145   -0.8910 H         1 <0>         0.1405
     64 H23        14.1127    2.9046   -2.5503 H         1 <0>         0.3982
     65 H24         3.3868   -0.5909   -3.6692 H         1 <0>         0.4019
     66 H25         3.1708    1.4425    3.5208 H         1 <0>         0.3961
     67 H26        -0.1201    1.3896    4.5024 H         1 <0>         0.3967
     68 H27        -2.5621    1.3113    2.0837 H         1 <0>         0.3962
     69 H28         1.8422    1.2359   -3.9991 H         1 <0>         0.3879
     70 H29         0.1829    3.1166   -6.2656 H         1 <0>         0.3970
     71 H30        -2.9932   -1.0571   -5.9956 H         1 <0>         0.3879
@<TRIPOS>BOND
     1    1    2 1
     2    1   52 1
     3    1   53 1
     4    1   54 1
     5    2    3 1
     6    2   12 1
     7    2    4 1
     8    4    5 1
     9    4    6 1
    10    4   51 1
    11    6    7 1
    12    6    8 1
    13    6   50 1
    14    8    9 1
    15    8   10 1
    16    8   49 1
    17   10   11 1
    18   10   12 1
    19   10   13 1
    20   13   14 1
    21   14   15 1
    22   14   55 1
    23   14   56 1
    24   15   16 1
    25   15   25 1
    26   15   17 1
    27   17   18 1
    28   17   19 1
    29   17   48 1
    30   19   20 1
    31   19   21 1
    32   19   47 1
    33   21   22 1
    34   21   23 1
    35   21   46 1
    36   23   24 1
    37   23   25 1
    38   23   26 1
    39   26   27 1
    40   27   37 ar
    41   27   28 ar
    42   28   29 ar
    43   28   57 1
    44   29   30 ar
    45   29   45 1
    46   30   36 ar
    47   30   31 1
    48   31   32 2
    49   31   33 1
    50   33   34 2
    51   33   58 1
    52   34   35 1
    53   34   38 1
    54   35   36 1
    55   36   37 ar
    56   37   59 1
    57   38   43 ar
    58   38   39 ar
    59   39   40 ar
    60   39   60 1
    61   40   41 ar
    62   40   61 1
    63   41   42 ar
    64   41   44 1
    65   42   43 ar
    66   42   62 1
    67   43   63 1
    68   44   64 1
    69   45   65 1
    70   46   66 1
    71   47   67 1
    72   48   68 1
    73   49   69 1
    74   50   70 1
    75   51   71 1
@<TRIPOS>MOLECULE
ZINC09975204
   59    63     0     0     0
SMALL
USER_CHARGES
2-[6-amino-8-[[4-(4-nitrophenyl)phenyl]methyleneaminoamino]purin-9-yl]-5-(hydroxymethyl)tetrahydrofuran-3,4-diol
@<TRIPOS>ATOM
      1 C1          4.9250    1.1384    0.4442 C.ar      1 <0>        -0.0990
      2 C2          3.7365    1.8014    0.5187 C.ar      1 <0>        -0.0951
      3 C3          2.5323    1.0881    0.4928 C.ar      1 <0>        -0.0677
      4 C4          2.5440   -0.3084    0.3956 C.ar      1 <0>        -0.0943
      5 C5          3.7286   -0.9777    0.3153 C.ar      1 <0>        -0.0859
      6 C6          4.9406   -0.2643    0.3411 C.ar      1 <0>        -0.0157
      7 C7          6.2136   -0.9791    0.2605 C.2       1 <0>         0.0429
      8 N1          6.2263   -2.2890    0.1643 N.2       1 <0>        -0.1897
      9 N2          7.3493   -2.9196    0.0931 N.pl3     1 <0>        -0.4796
     10 C8          7.3626   -4.2829   -0.0070 C.2       1 <0>         0.5300
     11 N3          6.3005   -5.0601    0.0654 N.2       1 <0>        -0.4485
     12 C9          6.6685   -6.3382   -0.0720 C.ar      1 <0>        -0.0387
     13 C10         5.9803   -7.5741   -0.0782 C.ar      1 <0>         0.4395
     14 N4          6.6860   -8.6881   -0.2447 N.ar      1 <0>        -0.5687
     15 C11         7.9963   -8.6521   -0.4011 C.ar      1 <0>         0.3372
     16 N5          8.6825   -7.5259   -0.4026 N.ar      1 <0>        -0.5276
     17 C12         8.0722   -6.3600   -0.2439 C.ar      1 <0>         0.3190
     18 N6          8.4814   -5.0494   -0.2040 N.pl3     1 <0>        -0.4733
     19 C13         9.8562   -4.5626   -0.3427 C.3       1 <0>         0.3049
     20 H1          9.8531   -3.4840   -0.5000 H         1 <0>         0.1339
     21 C14        10.6647   -4.9085    0.9228 C.3       1 <0>         0.0770
     22 H2         11.0988   -4.0075    1.3562 H         1 <0>         0.1004
     23 C15        11.7784   -5.8559    0.4143 C.3       1 <0>         0.0492
     24 H3         11.9383   -6.6780    1.1119 H         1 <0>         0.0918
     25 C16        11.1822   -6.3711   -0.9204 C.3       1 <0>         0.0125
     26 H4         10.4801   -7.1854   -0.7410 H         1 <0>         0.1551
     27 O1         10.4967   -5.2165   -1.4510 O.3       1 <0>        -0.3328
     28 C17        12.2947   -6.8206   -1.8697 C.3       1 <0>         0.0798
     29 O2         11.7181   -7.3014   -3.0856 O.3       1 <0>        -0.5579
     30 O3         12.9934   -5.1389    0.1869 O.3       1 <0>        -0.5520
     31 O4          9.8376   -5.5761    1.8778 O.3       1 <0>        -0.5359
     32 N7          4.6122   -7.6220    0.0848 N.pl3     1 <0>        -0.7418
     33 C18         1.2443    1.8113    0.5744 C.ar      1 <0>         0.0245
     34 C19         0.0400    1.1043    0.5489 C.ar      1 <0>        -0.1163
     35 C20        -1.1572    1.7852    0.6200 C.ar      1 <0>        -0.0426
     36 C21        -1.1668    3.1652    0.7281 C.ar      1 <0>        -0.0133
     37 C22         0.0231    3.8720    0.7538 C.ar      1 <0>        -0.0432
     38 C23         1.2272    3.2041    0.6777 C.ar      1 <0>        -0.1171
     39 N8         -2.4555    3.8888    0.8102 N.pl3     1 <0>        -0.0194
     40 O5         -2.4682    5.2021    0.9075 O.2       1 <0>        -0.1705
     41 O6         -3.5893    3.2192    0.7859 O.3       1 <0>        -0.1697
     42 H5          5.8537    1.6894    0.4646 H         1 <0>         0.1333
     43 H6          3.7238    2.8785    0.5975 H         1 <0>         0.1322
     44 H7          1.6131   -0.8558    0.3804 H         1 <0>         0.1320
     45 H8          3.7368   -2.0547    0.2359 H         1 <0>         0.1430
     46 H9          7.1434   -0.4301    0.2800 H         1 <0>         0.1217
     47 H10         8.1844   -2.4265    0.1107 H         1 <0>         0.3892
     48 H11         8.5279   -9.5829   -0.5336 H         1 <0>         0.2030
     49 H12        12.9498   -5.9769   -2.0870 H         1 <0>         0.0559
     50 H13        12.8721   -7.6176   -1.4012 H         1 <0>         0.0632
     51 H14        12.3668   -7.6039   -3.7358 H         1 <0>         0.3825
     52 H15        13.6940   -5.6699   -0.2161 H         1 <0>         0.3867
     53 H16        10.2958   -5.8173    2.6945 H         1 <0>         0.3907
     54 H17         4.3676   -7.2226    0.9683 H         1 <0>         0.3689
     55 H18         4.1526   -8.4761    0.0785 H         1 <0>         0.3733
     56 H19         0.0462    0.0273    0.4692 H         1 <0>         0.1536
     57 H20        -2.0893    1.2401    0.5959 H         1 <0>         0.1585
     58 H21         0.0084    4.9489    0.8341 H         1 <0>         0.1581
     59 H22         2.1549    3.7568    0.6976 H         1 <0>         0.1527
@<TRIPOS>BOND
     1    1    6 ar
     2    1    2 ar
     3    1   42 1
     4    2    3 ar
     5    2   43 1
     6    3    4 ar
     7    3   33 1
     8    4    5 ar
     9    4   44 1
    10    5    6 ar
    11    5   45 1
    12    6    7 1
    13    7    8 2
    14    7   46 1
    15    8    9 1
    16    9   10 1
    17    9   47 1
    18   10   18 1
    19   10   11 2
    20   11   12 1
    21   12   17 ar
    22   12   13 ar
    23   13   14 ar
    24   13   32 1
    25   14   15 ar
    26   15   16 ar
    27   15   48 1
    28   16   17 ar
    29   17   18 1
    30   18   19 1
    31   19   20 1
    32   19   27 1
    33   19   21 1
    34   21   22 1
    35   21   23 1
    36   21   31 1
    37   23   24 1
    38   23   25 1
    39   23   30 1
    40   25   26 1
    41   25   27 1
    42   25   28 1
    43   28   29 1
    44   28   49 1
    45   28   50 1
    46   29   51 1
    47   30   52 1
    48   31   53 1
    49   32   54 1
    50   32   55 1
    51   33   38 ar
    52   33   34 ar
    53   34   35 ar
    54   34   56 1
    55   35   36 ar
    56   35   57 1
    57   36   37 ar
    58   36   39 1
    59   37   38 ar
    60   37   58 1
    61   38   59 1
    62   39   40 2
    63   39   41 1
@<TRIPOS>MOLECULE
ZINC16525316
   50    54     0     0     0
SMALL
USER_CHARGES
9-[(2R,3R,4S,5R)-3,4-dihydroxy-5-(hydroxymethyl)tetrahydrofuran-2-yl]-8-((N'E)-N'-(1H-indol-3-ylmethylene)hydrazino)-1H-purin-6-one
@<TRIPOS>ATOM
      1 C1          6.8162   -2.7213    5.5442 C.ar      1 <0>        -0.1429
      2 C2          6.9695   -3.9686    6.1331 C.ar      1 <0>        -0.0952
      3 C3          5.9343   -4.8777    6.1313 C.ar      1 <0>        -0.1340
      4 C4          4.7275   -4.5500    5.5205 C.ar      1 <0>         0.0869
      5 C5          4.5807   -3.2872    4.9227 C.ar      1 <0>        -0.0806
      6 C6          5.6369   -2.3785    4.9436 C.ar      1 <0>        -0.0573
      7 C7          3.2116   -3.2516    4.3791 C.2       1 <0>        -0.1406
      8 C8          2.6482   -4.4554    4.6664 C.2       1 <0>         0.0951
      9 N1          3.5426   -5.2315    5.3442 N.pl3     1 <0>        -0.5847
     10 H1          3.3694   -6.1333    5.6569 H         1 <0>         0.4199
     11 C9          2.5793   -2.1333    3.6595 C.2       1 <0>         0.1349
     12 N2          3.2420   -1.0350    3.4550 N.2       1 <0>        -0.2030
     13 N3          2.6404    0.0290    2.7704 N.pl3     1 <0>        -0.5470
     14 C10         3.3447    1.1962    2.5530 C.2       1 <0>         0.5335
     15 N4          4.5779    1.4178    2.9375 N.2       1 <0>        -0.4363
     16 C11         4.9459    2.6669    2.5618 C.2       1 <0>        -0.0661
     17 C12         6.1293    3.4317    2.7070 C.2       1 <0>         0.5721
     18 O1          7.1043    2.9743    3.2789 O.2       1 <0>        -0.5067
     19 N5          6.1488    4.6822    2.1942 N.am      1 <0>        -0.6409
     20 H2          6.9471    5.2264    2.2804 H         1 <0>         0.4270
     21 C13         5.0579    5.1804    1.5590 C.2       1 <0>         0.3796
     22 N6          3.9614    4.4892    1.4181 N.2       1 <0>        -0.5065
     23 C14         3.8596    3.2418    1.8970 C.2       1 <0>         0.2527
     24 N7          2.8639    2.2981    1.8997 N.pl3     1 <0>        -0.4614
     25 C15         1.5284    2.4454    1.3158 C.3       1 <0>         0.3027
     26 H3          1.3059    3.4979    1.1400 H         1 <0>         0.1353
     27 C16         1.4269    1.6468   -0.0027 C.3       1 <0>         0.0771
     28 H4          2.1534    0.8343   -0.0140 H         1 <0>         0.0854
     29 C17        -0.0127    1.0858    0.0080 C.3       1 <0>         0.0453
     30 H5          0.0021   -0.0041    0.0020 H         1 <0>         0.0867
     31 C18        -0.6107    1.6118    1.3317 C.3       1 <0>         0.0465
     32 H6         -1.1613    2.5364    1.1584 H         1 <0>         0.1047
     33 O2          0.5316    1.8583    2.1804 O.3       1 <0>        -0.3522
     34 C19        -1.5234    0.5568    1.9602 C.3       1 <0>         0.0825
     35 O3         -2.1559    1.1036    3.1190 O.3       1 <0>        -0.5608
     36 O4         -0.7516    1.5814   -1.1102 O.3       1 <0>        -0.5373
     37 O5          1.6201    2.5086   -1.1262 O.3       1 <0>        -0.5266
     38 H7          7.6345   -2.0167    5.5602 H         1 <0>         0.1244
     39 H8          7.9068   -4.2263    6.6038 H         1 <0>         0.1253
     40 H9          6.0633   -5.8464    6.5910 H         1 <0>         0.1196
     41 H10         5.5241   -1.4062    4.4872 H         1 <0>         0.1395
     42 H11         1.6448   -4.7521    4.3988 H         1 <0>         0.1782
     43 H12         1.5645   -2.2262    3.3019 H         1 <0>         0.1154
     44 H13         1.7289   -0.0544    2.4492 H         1 <0>         0.3941
     45 H14         5.0991    6.1823    1.1577 H         1 <0>         0.2192
     46 H15        -2.2834    0.2575    1.2385 H         1 <0>         0.0698
     47 H16        -0.9310   -0.3125    2.2456 H         1 <0>         0.0557
     48 H17        -2.7507    0.4885    3.5696 H         1 <0>         0.3874
     49 H18        -1.6713    1.2840   -1.1370 H         1 <0>         0.3894
     50 H19         1.5077    2.0712   -1.9813 H         1 <0>         0.3938
@<TRIPOS>BOND
     1    1    6 ar
     2    1    2 ar
     3    1   38 1
     4    2    3 ar
     5    2   39 1
     6    3    4 ar
     7    3   40 1
     8    4    9 1
     9    4    5 ar
    10    5    6 ar
    11    5    7 1
    12    6   41 1
    13    7    8 2
    14    7   11 1
    15    8    9 1
    16    8   42 1
    17    9   10 1
    18   11   12 2
    19   11   43 1
    20   12   13 1
    21   13   14 1
    22   13   44 1
    23   14   24 1
    24   14   15 2
    25   15   16 1
    26   16   23 2
    27   16   17 1
    28   17   18 2
    29   17   19 am
    30   19   20 1
    31   19   21 1
    32   21   22 2
    33   21   45 1
    34   22   23 1
    35   23   24 1
    36   24   25 1
    37   25   26 1
    38   25   33 1
    39   25   27 1
    40   27   28 1
    41   27   29 1
    42   27   37 1
    43   29   30 1
    44   29   31 1
    45   29   36 1
    46   31   32 1
    47   31   33 1
    48   31   34 1
    49   34   35 1
    50   34   46 1
    51   34   47 1
    52   35   48 1
    53   36   49 1
    54   37   50 1
@<TRIPOS>MOLECULE
ZINC31159891
   69    72     0     0     0
SMALL
USER_CHARGES
(2R,3S,4R,5S,6R)-2-(hydroxymethyl)-6-[4-[(2S,3S)-3-(hydroxymethyl)-5-[(E)-3-hydroxyprop-1-enyl]-7-methoxy-2,3-dihydrobenzofuran-2-yl]-2-methoxy-phenoxy]tetrahydropyran-3,4,5-triol
@<TRIPOS>ATOM
      1 C1          1.6523   -0.3588    5.9671 C.3       1 <0>         0.0217
      2 O1          1.1073    0.1083    4.7315 O.3       1 <0>        -0.2982
      3 C2         -0.0907    0.7492    4.7881 C.ar      1 <0>         0.1073
      4 C3         -0.7277    0.9242    6.0062 C.ar      1 <0>        -0.1632
      5 C4         -1.9457    1.5755    6.0620 C.ar      1 <0>        -0.0941
      6 C5         -2.5309    2.0540    4.9044 C.ar      1 <0>        -0.0899
      7 C6         -1.8983    1.8874    3.6866 C.ar      1 <0>        -0.1560
      8 C7         -0.6799    1.2304    3.6229 C.ar      1 <0>         0.1099
      9 O2         -0.0588    1.0611    2.4251 O.3       1 <0>        -0.2880
     10 C8         -0.7222    1.5809    1.2711 C.3       1 <0>         0.2555
     11 H1         -1.7762    1.2710    1.3272 H         1 <0>         0.1155
     12 C9         -0.0127    1.0858    0.0080 C.3       1 <0>         0.1176
     13 H2         -0.0373   -0.0117   -0.0625 H         1 <0>         0.0866
     14 C10         1.4239    1.6173   -0.0029 C.3       1 <0>         0.0993
     15 H3          1.9748    1.2747   -0.8912 H         1 <0>         0.0660
     16 C11         1.3916    3.1463    0.0843 C.3       1 <0>         0.0703
     17 H4          0.9499    3.5923   -0.8190 H         1 <0>         0.0703
     18 C12         0.6279    3.5618    1.3444 C.3       1 <0>         0.0677
     19 H5          1.0985    3.1527    2.2506 H         1 <0>         0.0880
     20 O3         -0.6894    3.0091    1.3054 O.3       1 <0>        -0.3661
     21 C13         0.5396    5.0879    1.4076 C.3       1 <0>         0.0938
     22 O4         -0.0698    5.4792    2.6395 O.3       1 <0>        -0.5870
     23 O5          2.7276    3.6492    0.1480 O.3       1 <0>        -0.5934
     24 O6          2.1373    1.0896    1.1172 O.3       1 <0>        -0.5652
     25 O7         -0.7062    1.5604   -1.1478 O.3       1 <0>        -0.5764
     26 C14        -2.6370    1.7649    7.3877 C.3       1 <0>         0.1370
     27 H6         -1.8428    1.8137    8.1472 H         1 <0>         0.1044
     28 C15        -3.7084    0.6710    7.6083 C.3       1 <0>        -0.0636
     29 H7         -3.3577   -0.2081    8.1688 H         1 <0>         0.1115
     30 C16        -4.8002    1.4416    8.3259 C.ar      1 <0>        -0.1192
     31 C17        -5.8977    1.0284    9.0458 C.ar      1 <0>        -0.0761
     32 C18        -6.7529    1.9726    9.6169 C.ar      1 <0>        -0.0468
     33 C19        -6.4847    3.3325    9.4511 C.ar      1 <0>        -0.1694
     34 C20        -5.3832    3.7382    8.7249 C.ar      1 <0>         0.1156
     35 C21        -4.5287    2.7918    8.1495 C.ar      1 <0>         0.0772
     36 O8         -3.4094    2.9774    7.3907 O.3       1 <0>        -0.2806
     37 O9         -5.1273    5.0646    8.5681 O.3       1 <0>        -0.3100
     38 C22        -6.0392    5.9781    9.1813 C.3       1 <0>         0.0219
     39 C23        -7.9335    1.5356   10.3908 C.2       1 <0>        -0.1015
     40 C24        -8.7426    2.4366   10.9311 C.2       1 <0>        -0.1487
     41 C25        -9.9466    1.9910   11.7203 C.3       1 <0>         0.1148
     42 O10       -10.0350    2.7536   12.9256 O.3       1 <0>        -0.6006
     43 C26        -4.2131    0.1226    6.2721 C.3       1 <0>         0.0957
     44 O11        -5.1120   -0.9622    6.5114 O.3       1 <0>        -0.5990
     45 H8          2.6160   -0.8545    5.7786 H         1 <0>         0.1023
     46 H9          0.9557   -1.0747    6.4278 H         1 <0>         0.0547
     47 H10         1.8047    0.4932    6.6460 H         1 <0>         0.0550
     48 H11        -0.2723    0.5520    6.9121 H         1 <0>         0.1374
     49 H12        -3.4824    2.5626    4.9522 H         1 <0>         0.1298
     50 H13        -2.3555    2.2658    2.7843 H         1 <0>         0.1403
     51 H14         1.5508    5.5165    1.3463 H         1 <0>         0.0542
     52 H15        -0.0660    5.4553    0.5660 H         1 <0>         0.0509
     53 H16        -0.2190    6.5454    2.8650 H         1 <0>         0.4102
     54 H17         2.9048    4.7328    0.2150 H         1 <0>         0.4110
     55 H18         3.1911    1.3621    1.2761 H         1 <0>         0.4137
     56 H19        -0.3402    1.3036   -2.1528 H         1 <0>         0.4227
     57 H20        -6.0976   -0.0259    9.1686 H         1 <0>         0.1326
     58 H21        -7.1403    4.0687    9.8922 H         1 <0>         0.1402
     59 H22        -5.7170    7.0100    8.9777 H         1 <0>         0.1037
     60 H23        -6.0551    5.8065   10.2677 H         1 <0>         0.0569
     61 H24        -7.0474    5.8210    8.7705 H         1 <0>         0.0559
     62 H25        -8.1412    0.4630   10.5187 H         1 <0>         0.1261
     63 H26        -8.5349    3.5092   10.8032 H         1 <0>         0.1187
     64 H27       -10.8558    2.1460   11.1208 H         1 <0>         0.0546
     65 H28        -9.8482    0.9238   11.9680 H         1 <0>         0.0499
     66 H29       -10.8555    2.5686   13.6346 H         1 <0>         0.4123
     67 H30        -4.7373    0.9190    5.7234 H         1 <0>         0.0451
     68 H31        -3.3598   -0.2330    5.6759 H         1 <0>         0.0563
     69 H32        -5.5794   -1.4862    5.6647 H         1 <0>         0.4113
@<TRIPOS>BOND
     1    1    2 1
     2    1   45 1
     3    1   46 1
     4    1   47 1
     5    2    3 1
     6    3    8 ar
     7    3    4 ar
     8    4    5 ar
     9    4   48 1
    10    5    6 ar
    11    5   26 1
    12    6    7 ar
    13    6   49 1
    14    7    8 ar
    15    7   50 1
    16    8    9 1
    17    9   10 1
    18   10   11 1
    19   10   20 1
    20   10   12 1
    21   12   13 1
    22   12   14 1
    23   12   25 1
    24   14   15 1
    25   14   16 1
    26   14   24 1
    27   16   17 1
    28   16   18 1
    29   16   23 1
    30   18   19 1
    31   18   20 1
    32   18   21 1
    33   21   22 1
    34   21   51 1
    35   21   52 1
    36   22   53 1
    37   23   54 1
    38   24   55 1
    39   25   56 1
    40   26   27 1
    41   26   36 1
    42   26   28 1
    43   28   29 1
    44   28   30 1
    45   28   43 1
    46   30   35 ar
    47   30   31 ar
    48   31   32 ar
    49   31   57 1
    50   32   33 ar
    51   32   39 1
    52   33   34 ar
    53   33   58 1
    54   34   35 ar
    55   34   37 1
    56   35   36 1
    57   37   38 1
    58   38   59 1
    59   38   60 1
    60   38   61 1
    61   39   40 2
    62   39   62 1
    63   40   41 1
    64   40   63 1
    65   41   42 1
    66   41   64 1
    67   41   65 1
    68   42   66 1
    69   43   44 1
    70   43   67 1
    71   43   68 1
    72   44   69 1
@<TRIPOS>MOLECULE
ZINC35454760
   59    61     0     0     0
SMALL
USER_CHARGES

@<TRIPOS>ATOM
      1 C1         -0.0173    1.4248    0.0099 C.3       1 <0>         0.0268
      2 O1          0.0021   -0.0041    0.0020 O.3       1 <0>        -0.3062
      3 C2          0.6066   -0.6079   -1.0571 C.ar      1 <0>         0.0721
      4 C3          1.1727    0.1595   -2.0619 C.ar      1 <0>        -0.1345
      5 C4          1.7869   -0.4531   -3.1381 C.ar      1 <0>        -0.1814
      6 C5          1.8378   -1.8370   -3.2144 C.ar      1 <0>         0.1263
      7 C6          1.2723   -2.6088   -2.2107 C.ar      1 <0>        -0.2010
      8 C7          0.6614   -1.9963   -1.1285 C.ar      1 <0>         0.1347
      9 O2          0.1116   -2.7512   -0.1400 O.3       1 <0>        -0.3008
     10 C8          0.2050   -4.1703   -0.2792 C.3       1 <0>         0.0246
     11 O3          2.4421   -2.4374   -4.2743 O.3       1 <0>        -0.3193
     12 C9          3.0030   -1.5814   -5.2717 C.3       1 <0>         0.2176
     13 H1          3.7017   -0.8876   -4.8041 H         1 <0>         0.1152
     14 C10         3.7419   -2.4263   -6.3127 C.3       1 <0>         0.0662
     15 H2          4.2042   -1.7717   -7.0515 H         1 <0>         0.1003
     16 C11         2.7422   -3.3563   -7.0070 C.3       1 <0>         0.0851
     17 H3          2.3163   -4.0443   -6.2767 H         1 <0>         0.0819
     18 C12         1.6248   -2.5134   -7.6294 C.3       1 <0>         0.0916
     19 H4          0.8798   -3.1704   -8.0781 H         1 <0>         0.0843
     20 C13         0.9676   -1.6651   -6.5375 C.3       1 <0>         0.1051
     21 H5          0.5132   -2.3192   -5.7932 H         1 <0>         0.0931
     22 O4          1.9577   -0.8463   -5.9113 O.3       1 <0>        -0.3565
     23 C14        -0.1099   -0.7760   -7.1614 C.3       1 <0>         0.0790
     24 O5         -0.8019   -0.0707   -6.1291 O.3       1 <0>        -0.3520
     25 C15        -1.8351    0.7931   -6.6072 C.3       1 <0>         0.2281
     26 H6         -1.4418    1.4233   -7.4049 H         1 <0>         0.0599
     27 C16        -2.3354    1.6745   -5.4599 C.3       1 <0>         0.1047
     28 H7         -1.5214    2.3061   -5.1042 H         1 <0>         0.0719
     29 C17        -3.4829    2.5544   -5.9653 C.3       1 <0>         0.1186
     30 H8         -3.1153    3.2197   -6.7465 H         1 <0>         0.0815
     31 C18        -4.5871    1.6577   -6.5336 C.3       1 <0>         0.0397
     32 H9         -5.3834    2.2774   -6.9458 H         1 <0>         0.0668
     33 C19        -3.9998    0.7769   -7.6395 C.3       1 <0>         0.0398
     34 O6         -2.9179    0.0078   -7.1103 O.3       1 <0>        -0.3850
     35 O7         -5.1145    0.8320   -5.4934 O.3       1 <0>        -0.5179
     36 O8         -4.0035    3.3292   -4.8833 O.3       1 <0>        -0.5370
     37 O9         -2.8008    0.8482   -4.3909 O.3       1 <0>        -0.5135
     38 O10         2.1746   -1.6585   -8.6339 O.3       1 <0>        -0.5497
     39 O11         3.4100   -4.0980   -8.0297 O.3       1 <0>        -0.5600
     40 O12         4.7511   -3.2049   -5.6667 O.3       1 <0>        -0.5512
     41 H10         1.0053    1.8021    0.0021 H         1 <0>         0.0523
     42 H11        -0.5445    1.7859   -0.8732 H         1 <0>         0.0560
     43 H12        -0.5275    1.7763    0.9067 H         1 <0>         0.1001
     44 H13         1.1338    1.2373   -2.0046 H         1 <0>         0.1373
     45 H14         2.2274    0.1467   -3.9208 H         1 <0>         0.1368
     46 H15         1.3121   -3.6864   -2.2702 H         1 <0>         0.1416
     47 H16        -0.2718   -4.6513    0.5748 H         1 <0>         0.1022
     48 H17        -0.2960   -4.4791   -1.1966 H         1 <0>         0.0564
     49 H18         1.2542   -4.4629   -0.3220 H         1 <0>         0.0559
     50 H19         0.3565   -0.0617   -7.8398 H         1 <0>         0.0729
     51 H20        -0.8161   -1.3950   -7.7148 H         1 <0>         0.0775
     52 H21        -4.7712    0.1065   -8.0184 H         1 <0>         0.1063
     53 H22        -3.6350    1.4069   -8.4508 H         1 <0>         0.0609
     54 H23        -5.8197    0.2370   -5.7828 H         1 <0>         0.3695
     55 H24        -4.7347    3.9109   -5.1322 H         1 <0>         0.3789
     56 H25        -2.1253    0.2607   -4.0252 H         1 <0>         0.3754
     57 H26         2.6113   -2.1305   -9.3561 H         1 <0>         0.3891
     58 H27         4.1348   -4.6501   -7.7056 H         1 <0>         0.3946
     59 H28         5.4166   -2.6790   -5.2023 H         1 <0>         0.3877
@<TRIPOS>BOND
     1    1    2 1
     2    1   41 1
     3    1   42 1
     4    1   43 1
     5    2    3 1
     6    3    8 ar
     7    3    4 ar
     8    4    5 ar
     9    4   44 1
    10    5    6 ar
    11    5   45 1
    12    6    7 ar
    13    6   11 1
    14    7    8 ar
    15    7   46 1
    16    8    9 1
    17    9   10 1
    18   10   47 1
    19   10   48 1
    20   10   49 1
    21   11   12 1
    22   12   13 1
    23   12   22 1
    24   12   14 1
    25   14   15 1
    26   14   16 1
    27   14   40 1
    28   16   17 1
    29   16   18 1
    30   16   39 1
    31   18   19 1
    32   18   20 1
    33   18   38 1
    34   20   21 1
    35   20   22 1
    36   20   23 1
    37   23   24 1
    38   23   50 1
    39   23   51 1
    40   24   25 1
    41   25   26 1
    42   25   34 1
    43   25   27 1
    44   27   28 1
    45   27   29 1
    46   27   37 1
    47   29   30 1
    48   29   31 1
    49   29   36 1
    50   31   32 1
    51   31   33 1
    52   31   35 1
    53   33   34 1
    54   33   52 1
    55   33   53 1
    56   35   54 1
    57   36   55 1
    58   37   56 1
    59   38   57 1
    60   39   58 1
    61   40   59 1
@<TRIPOS>MOLECULE
ZINC06590822
   60    63     0     0     0
SMALL
USER_CHARGES
6-[[2-(2,4-dimethoxyphenyl)pyrrolidin-1-yl]methyl]-N'-(o-tolyl)-1,3,5-triazine-2,4-diamine
@<TRIPOS>ATOM
      1 C1          2.0832    5.3699   -7.5697 C.3       1 <0>        -0.1199
      2 C2          3.3480    4.7557   -7.0275 C.ar      1 <0>        -0.1039
      3 C3          4.5454    4.9390   -7.6912 C.ar      1 <0>        -0.0988
      4 C4          5.7064    4.3761   -7.1942 C.ar      1 <0>        -0.1206
      5 C5          5.6731    3.6285   -6.0311 C.ar      1 <0>        -0.1063
      6 C6          4.4803    3.4458   -5.3598 C.ar      1 <0>        -0.1104
      7 C7          3.3111    4.0051   -5.8596 C.ar      1 <0>         0.1393
      8 N1          2.1006    3.8176   -5.1852 N.pl3     1 <0>        -0.6091
      9 C8          1.8931    2.6702   -4.4445 C.ar      1 <0>         0.6365
     10 N2          0.7888    2.5399   -3.7126 N.ar      1 <0>        -0.6179
     11 C9          0.5921    1.4450   -2.9996 C.ar      1 <0>         0.3816
     12 N3          1.4849    0.4706   -3.0183 N.ar      1 <0>        -0.6202
     13 C10         2.5889    0.5912   -3.7519 C.ar      1 <0>         0.6375
     14 N4          2.7928    1.6930   -4.4659 N.ar      1 <0>        -0.6193
     15 N5          3.5203   -0.4268   -3.7712 N.pl3     1 <0>        -0.7912
     16 C11        -0.6565    1.3042   -2.1676 C.3       1 <0>         0.0843
     17 C12         0.5075    0.9569   -0.0641 C.3       1 <0>        -0.0084
     18 C13         0.0343    1.0596    1.4073 C.3       1 <0>        -0.1419
     19 C14        -1.5080    1.1407    1.2325 C.3       1 <0>        -0.1319
     20 C15        -1.6689    1.9625   -0.0637 C.3       1 <0>         0.0920
     21 H1         -1.8506    3.0091    0.1808 H         1 <0>         0.1500
     22 C16        -2.8136    1.4169   -0.8779 C.ar      1 <0>        -0.2229
     23 C17        -2.8744    0.0665   -1.1653 C.ar      1 <0>        -0.0312
     24 C18        -3.9228   -0.4368   -1.9111 C.ar      1 <0>        -0.2379
     25 C19        -4.9178    0.4131   -2.3737 C.ar      1 <0>         0.2038
     26 C20        -4.8591    1.7679   -2.0868 C.ar      1 <0>        -0.2424
     27 C21        -3.8086    2.2698   -1.3336 C.ar      1 <0>         0.2031
     28 O1         -3.7512    3.5968   -1.0460 O.3       1 <0>        -0.3134
     29 C22        -4.8095    4.4157   -1.5474 C.3       1 <0>         0.0212
     30 O2         -5.9486   -0.0825   -3.1076 O.3       1 <0>        -0.3054
     31 C23        -5.9446   -1.4881   -3.3653 C.3       1 <0>         0.0210
     32 H2          1.9543    6.3672   -7.1491 H         1 <0>         0.0753
     33 H3          2.1495    5.4393   -8.6555 H         1 <0>         0.0773
     34 H4          1.2310    4.7475   -7.2967 H         1 <0>         0.0608
     35 H5          4.5748    5.5229   -8.5993 H         1 <0>         0.1310
     36 H6          6.6413    4.5210   -7.7151 H         1 <0>         0.1281
     37 H7          6.5818    3.1905   -5.6453 H         1 <0>         0.1275
     38 H8          4.4557    2.8653   -4.4494 H         1 <0>         0.1363
     39 H9          1.4065    4.4932   -5.2374 H         1 <0>         0.4296
     40 H10         3.3706   -1.2310   -3.2499 H         1 <0>         0.4238
     41 H11         4.3246   -0.3382   -4.3060 H         1 <0>         0.4257
     42 H12        -0.9303    0.2515   -2.0984 H         1 <0>         0.1552
     43 H13        -1.4690    1.8610   -2.6346 H         1 <0>         0.1549
     44 H14         0.4264   -0.0709   -0.4180 H         1 <0>         0.1388
     45 H15         1.5345    1.3098   -0.1579 H         1 <0>         0.1260
     46 H16         0.3191    0.1718    1.9720 H         1 <0>         0.1185
     47 H17         0.4219    1.9620    1.8801 H         1 <0>         0.0986
     48 H18        -1.9646    1.6584    2.0761 H         1 <0>         0.1155
     49 H19        -1.9350    0.1450    1.1130 H         1 <0>         0.1018
     50 H20        -2.1010   -0.5964   -0.8066 H         1 <0>         0.1396
     51 H21        -3.9684   -1.4926   -2.1341 H         1 <0>         0.1434
     52 H22        -5.6321    2.4310   -2.4461 H         1 <0>         0.1495
     53 H23        -4.8335    4.3526   -2.6353 H         1 <0>         0.0658
     54 H24        -5.7602    4.0691   -1.1422 H         1 <0>         0.0667
     55 H25        -4.6420    5.4500   -1.2470 H         1 <0>         0.1118
     56 H26        -5.0405   -1.7545   -3.9128 H         1 <0>         0.0629
     57 H27        -5.9703   -2.0308   -2.4204 H         1 <0>         0.0644
     58 H28        -6.8199   -1.7511   -3.9593 H         1 <0>         0.1113
     59 N6         -0.4017    1.8477   -0.8080 N.4       1 <0>        -0.3887
     60 H29         0.0278    2.7764   -0.8934 H         1 <0>         0.4316
@<TRIPOS>BOND
     1    1    2 1
     2    1   32 1
     3    1   33 1
     4    1   34 1
     5    2    7 ar
     6    2    3 ar
     7    3    4 ar
     8    3   35 1
     9    4    5 ar
    10    4   36 1
    11    5    6 ar
    12    5   37 1
    13    6    7 ar
    14    6   38 1
    15    7    8 1
    16    8    9 1
    17    8   39 1
    18    9   14 ar
    19    9   10 ar
    20   10   11 ar
    21   11   12 ar
    22   11   16 1
    23   12   13 ar
    24   13   14 ar
    25   13   15 1
    26   15   40 1
    27   15   41 1
    28   16   42 1
    29   16   43 1
    30   16   59 1
    31   17   18 1
    32   17   44 1
    33   17   45 1
    34   17   59 1
    35   18   19 1
    36   18   46 1
    37   18   47 1
    38   19   20 1
    39   19   48 1
    40   19   49 1
    41   20   21 1
    42   20   22 1
    43   20   59 1
    44   22   27 ar
    45   22   23 ar
    46   23   24 ar
    47   23   50 1
    48   24   25 ar
    49   24   51 1
    50   25   26 ar
    51   25   30 1
    52   26   27 ar
    53   26   52 1
    54   27   28 1
    55   28   29 1
    56   29   53 1
    57   29   54 1
    58   29   55 1
    59   30   31 1
    60   31   56 1
    61   31   57 1
    62   31   58 1
    63   59   60 1
@<TRIPOS>MOLECULE
ZINC11851755
   62    68     0     0     0
SMALL
USER_CHARGES
(3aR,4S,6R,6aR)-4-(1H-indol-3-ylmethyl)-2-(4-methoxyphenyl)spiro[3a,4,5,6a-tetrahydropyrrolo[3,4-c]pyrrole-6,3'-indoline]-1,2',3-trione
@<TRIPOS>ATOM
      1 C1         -5.7085    5.2498    9.0099 C.3       1 <0>         0.0228
      2 O1         -6.2369    6.0743    7.9691 O.3       1 <0>        -0.3102
      3 C2         -5.7890    5.8382    6.7073 C.ar      1 <0>         0.1365
      4 C3         -6.2608    6.6021    5.6498 C.ar      1 <0>        -0.1276
      5 C4         -5.8062    6.3627    4.3681 C.ar      1 <0>        -0.0907
      6 C5         -4.8766    5.3578    4.1380 C.ar      1 <0>         0.0671
      7 C6         -4.4084    4.5906    5.1958 C.ar      1 <0>        -0.0910
      8 C7         -4.8599    4.8338    6.4778 C.ar      1 <0>        -0.1859
      9 N1         -4.4147    5.1139    2.8354 N.am      1 <0>        -0.5251
     10 C8         -4.8298    5.8205    1.7349 C.2       1 <0>         0.5749
     11 O2         -5.4255    6.8762    1.7163 O.2       1 <0>        -0.4142
     12 C9         -4.4114    4.9956    0.6027 C.3       1 <0>        -0.1878
     13 H1         -5.0585    4.1208    0.5400 H         1 <0>         0.1651
     14 C10        -4.0272    5.3707   -0.7870 C.3       1 <0>         0.0755
     15 H2         -3.6056    6.3757   -0.8068 H         1 <0>         0.1661
     16 C11        -2.6695    3.5594    0.0415 C.3       1 <0>         0.1198
     17 C12        -3.0265    4.4778    1.1650 C.3       1 <0>        -0.1474
     18 H3         -2.3152    5.3024    1.2118 H         1 <0>         0.1685
     19 C13        -3.4993    4.1430    2.5219 C.2       1 <0>         0.5650
     20 O3         -3.1526    3.2084    3.2119 O.2       1 <0>        -0.4164
     21 C14        -1.2254    3.1452    0.0292 C.ar      1 <0>        -0.2023
     22 C15        -0.0388    3.8434    0.0236 C.ar      1 <0>        -0.0422
     23 C16         1.1654    3.1624    0.0085 C.ar      1 <0>        -0.1218
     24 C17         1.1737    1.7794    0.0004 C.ar      1 <0>        -0.0430
     25 C18        -0.0126    1.0758    0.0080 C.ar      1 <0>        -0.1201
     26 C19        -1.2294    1.7535    0.0174 C.ar      1 <0>         0.1688
     27 N2         -2.5410    1.2741    0.0319 N.am      1 <0>        -0.6335
     28 C20        -3.4463    2.2714    0.0427 C.2       1 <0>         0.5252
     29 O4         -4.6534    2.1537    0.0520 O.2       1 <0>        -0.4426
     30 C21        -5.2385    5.2830   -1.7176 C.3       1 <0>        -0.0542
     31 C22        -4.8571    5.7830   -3.0871 C.2       1 <0>        -0.2330
     32 C23        -5.0314    7.0271   -3.5601 C.2       1 <0>         0.1059
     33 N3         -4.5629    7.1084   -4.8432 N.pl3     1 <0>        -0.5845
     34 H4         -4.5799    7.9073   -5.3931 H         1 <0>         0.4263
     35 C24        -4.0629    5.8875   -5.2372 C.ar      1 <0>         0.0998
     36 C25        -4.2199    5.0052   -4.1525 C.ar      1 <0>        -0.1105
     37 C26        -3.7913    3.6814   -4.2638 C.ar      1 <0>        -0.1140
     38 C27        -3.2175    3.2495   -5.4265 C.ar      1 <0>        -0.1168
     39 C28        -3.0573    4.1168   -6.4982 C.ar      1 <0>        -0.0950
     40 C29        -3.4800    5.4255   -6.4125 C.ar      1 <0>        -0.1083
     41 H5         -5.9485    4.2067    8.8043 H         1 <0>         0.0595
     42 H6         -4.6263    5.3715    9.0557 H         1 <0>         0.0594
     43 H7         -6.1477    5.5426    9.9636 H         1 <0>         0.1073
     44 H8         -6.9841    7.3839    5.8289 H         1 <0>         0.1458
     45 H9         -6.1736    6.9575    3.5449 H         1 <0>         0.1555
     46 H10        -3.6885    3.8057    5.0166 H         1 <0>         0.1494
     47 H11        -4.4926    4.2396    7.3015 H         1 <0>         0.1413
     48 H12        -0.0480    4.9233    0.0306 H         1 <0>         0.1406
     49 H13         2.0966    3.7093    0.0028 H         1 <0>         0.1495
     50 H14         2.1137    1.2478   -0.0116 H         1 <0>         0.1509
     51 H15         0.0021   -0.0041    0.0020 H         1 <0>         0.1464
     52 H16        -2.7731    0.3323    0.0305 H         1 <0>         0.4390
     53 H17        -5.5683    4.2465   -1.7881 H         1 <0>         0.1009
     54 H18        -6.0476    5.8955   -1.3196 H         1 <0>         0.1308
     55 H19        -5.4753    7.8432   -3.0094 H         1 <0>         0.1811
     56 H20        -3.9130    3.0007   -3.4341 H         1 <0>         0.1045
     57 H21        -2.8857    2.2253   -5.5121 H         1 <0>         0.1297
     58 H22        -2.6021    3.7608   -7.4106 H         1 <0>         0.1352
     59 H23        -3.3493    6.0931   -7.2513 H         1 <0>         0.1297
     60 N4         -2.9975    4.3595   -1.1647 N.4       1 <0>        -0.5084
     61 H24        -2.1538    4.8338   -1.5073 H         1 <0>         0.4471
     62 H25        -3.3670    3.7450   -1.8996 H         1 <0>         0.4358
@<TRIPOS>BOND
     1    1    2 1
     2    1   41 1
     3    1   42 1
     4    1   43 1
     5    2    3 1
     6    3    8 ar
     7    3    4 ar
     8    4    5 ar
     9    4   44 1
    10    5    6 ar
    11    5   45 1
    12    6    7 ar
    13    6    9 1
    14    7    8 ar
    15    7   46 1
    16    8   47 1
    17    9   19 am
    18    9   10 am
    19   10   11 2
    20   10   12 1
    21   12   13 1
    22   12   17 1
    23   12   14 1
    24   14   15 1
    25   14   30 1
    26   14   60 1
    27   16   28 1
    28   16   17 1
    29   16   21 1
    30   16   60 1
    31   17   18 1
    32   17   19 1
    33   19   20 2
    34   21   26 ar
    35   21   22 ar
    36   22   23 ar
    37   22   48 1
    38   23   24 ar
    39   23   49 1
    40   24   25 ar
    41   24   50 1
    42   25   26 ar
    43   25   51 1
    44   26   27 1
    45   27   28 am
    46   27   52 1
    47   28   29 2
    48   30   31 1
    49   30   53 1
    50   30   54 1
    51   31   36 1
    52   31   32 2
    53   32   33 1
    54   32   55 1
    55   33   34 1
    56   33   35 1
    57   35   40 ar
    58   35   36 ar
    59   36   37 ar
    60   37   38 ar
    61   37   56 1
    62   38   39 ar
    63   38   57 1
    64   39   40 ar
    65   39   58 1
    66   40   59 1
    67   60   61 1
    68   60   62 1
@<TRIPOS>MOLECULE
ZINC32932529
   63    66     0     0     0
SMALL
USER_CHARGES
N-[4-(4-ethylpiperazin-1-yl)-2-methyl-phenyl]-4-[(2-fluorophenyl)sulfamoyl]-1H-pyrrole-2-carboxamide
@<TRIPOS>ATOM
      1 C1         -1.0622    3.9946    4.2462 C.3       1 <0>        -0.1932
      2 C2         -0.4378    3.1353    3.1450 C.3       1 <0>        -0.0069
      3 N1         -1.0492    3.4747    1.8532 N.4       1 <0>        -0.4025
      4 C3         -0.3179    2.8475    0.7434 C.3       1 <0>         0.0010
      5 C4         -1.0303    3.1593   -0.5748 C.3       1 <0>         0.0189
      6 N2         -1.1067    4.6158   -0.7548 N.pl3     1 <0>        -0.4840
      7 C5         -1.8384    5.2430    0.3547 C.3       1 <0>         0.0251
      8 C6         -1.1261    4.9312    1.6729 C.3       1 <0>        -0.0071
      9 C7         -1.6885    4.9391   -1.9853 C.ar      1 <0>         0.0700
     10 C8         -2.0971    3.9292   -2.8471 C.ar      1 <0>        -0.1421
     11 C9         -2.6764    4.2483   -4.0588 C.ar      1 <0>        -0.1035
     12 C10        -2.8398    5.5791   -4.4215 C.ar      1 <0>         0.1507
     13 C11        -2.4261    6.5886   -3.5626 C.ar      1 <0>        -0.0906
     14 C12        -1.8523    6.2696   -2.3478 C.ar      1 <0>        -0.1060
     15 C13        -2.6039    8.0324   -3.9559 C.3       1 <0>        -0.1224
     16 N3         -3.4222    5.9027   -5.6535 N.am      1 <0>        -0.6820
     17 C14        -4.2414    5.0233   -6.2634 C.2       1 <0>         0.5979
     18 O1         -4.5534    3.9905   -5.7000 O.2       1 <0>        -0.5039
     19 C15        -4.7570    5.3108   -7.6059 C.2       1 <0>        -0.0771
     20 C16        -5.5983    4.5066   -8.3453 C.2       1 <0>        -0.0039
     21 C17        -5.8339    5.1631   -9.5573 C.2       1 <0>        -0.7596
     22 C18        -5.1477    6.3307   -9.5377 C.2       1 <0>         0.1780
     23 N4         -4.4938    6.4352   -8.3549 N.pl3     1 <0>        -0.5372
     24 H1         -3.8422    7.2245   -7.9518 H         1 <0>         0.4478
     25 S1         -6.8441    4.5756  -10.8760 S.o2      1 <0>         2.7214
     26 O2         -6.3801    5.2131  -12.0582 O.2       1 <0>        -0.9504
     27 O3         -6.9011    3.1618  -10.7451 O.2       1 <0>        -0.9447
     28 N5         -8.3780    5.1382  -10.6058 N.pl3     1 <0>        -1.0668
     29 C19        -8.6175    6.5147  -10.5457 C.ar      1 <0>         0.1347
     30 C20        -7.9058    7.3811  -11.3643 C.ar      1 <0>        -0.1559
     31 C21        -8.1473    8.7401  -11.3055 C.ar      1 <0>        -0.0982
     32 C22        -9.0902    9.2397  -10.4260 C.ar      1 <0>        -0.1083
     33 C23        -9.7983    8.3812   -9.6051 C.ar      1 <0>        -0.1308
     34 C24        -9.5650    7.0194   -9.6616 C.ar      1 <0>         0.0772
     35 F1        -10.2561    6.1807   -8.8590 F         1 <0>        -0.1340
     36 H2         -0.6044    3.7404    5.2136 H         1 <0>         0.1066
     37 H3         -2.1445    3.8033    4.2912 H         1 <0>         0.0809
     38 H4         -0.8866    5.0578    4.0255 H         1 <0>         0.0825
     39 H5          0.6445    3.3266    3.1000 H         1 <0>         0.1271
     40 H6         -0.6133    2.0721    3.3657 H         1 <0>         0.1322
     41 H7          0.7076    3.2439    0.7096 H         1 <0>         0.1361
     42 H8         -0.2852    1.7585    0.8948 H         1 <0>         0.1400
     43 H9         -0.4683    2.7147   -1.4094 H         1 <0>         0.1302
     44 H10        -2.0462    2.7380   -0.5512 H         1 <0>         0.0721
     45 H11        -1.8711    6.3320    0.2031 H         1 <0>         0.1268
     46 H12        -2.8639    4.8465    0.3882 H         1 <0>         0.0690
     47 H13        -1.6880    5.3749    2.5081 H         1 <0>         0.1428
     48 H14        -0.1100    5.3520    1.6500 H         1 <0>         0.1363
     49 H15        -1.9657    2.8944   -2.5673 H         1 <0>         0.1302
     50 H16        -2.9985    3.4632   -4.7268 H         1 <0>         0.1538
     51 H17        -1.5306    7.0548   -1.6797 H         1 <0>         0.1311
     52 H18        -2.2197    8.6807   -3.1546 H         1 <0>         0.0766
     53 H19        -3.6723    8.2401   -4.1151 H         1 <0>         0.0741
     54 H20        -2.0495    8.2302   -4.8851 H         1 <0>         0.0723
     55 H21        -3.2110    6.8746   -6.1233 H         1 <0>         0.4258
     56 H22        -5.9995    3.5499   -8.0451 H         1 <0>         0.1649
     57 H23        -5.1288    7.0617  -10.3326 H         1 <0>         0.1935
     58 H24        -9.2085    4.4292  -10.4736 H         1 <0>         0.4596
     59 H25        -7.1661    6.9928  -12.0488 H         1 <0>         0.1699
     60 H26        -7.5961    9.4138  -11.9448 H         1 <0>         0.1382
     61 H27        -9.2738   10.3030  -10.3799 H         1 <0>         0.1362
     62 H28       -10.5337    8.7747   -8.9191 H         1 <0>         0.1397
     63 H29        -2.0750    3.0777    1.8518 H         1 <0>         0.4394
@<TRIPOS>BOND
     1    1    2 1
     2    1   36 1
     3    1   37 1
     4    1   38 1
     5    2    3 1
     6    2   39 1
     7    2   40 1
     8    3    8 1
     9    3    4 1
    10    3   63 1
    11    4    5 1
    12    4   41 1
    13    4   42 1
    14    5    6 1
    15    5   43 1
    16    5   44 1
    17    6    7 1
    18    6    9 1
    19    7    8 1
    20    7   45 1
    21    7   46 1
    22    8   47 1
    23    8   48 1
    24    9   14 ar
    25    9   10 ar
    26   10   11 ar
    27   10   49 1
    28   11   12 ar
    29   11   50 1
    30   12   13 ar
    31   12   16 1
    32   13   14 ar
    33   13   15 1
    34   14   51 1
    35   15   52 1
    36   15   53 1
    37   15   54 1
    38   16   17 am
    39   16   55 1
    40   17   18 2
    41   17   19 1
    42   19   23 1
    43   19   20 2
    44   20   21 1
    45   20   56 1
    46   21   22 2
    47   21   25 1
    48   22   23 1
    49   22   57 1
    50   23   24 1
    51   25   26 2
    52   25   27 2
    53   25   28 1
    54   28   29 1
    55   28   58 1
    56   29   34 ar
    57   29   30 ar
    58   30   31 ar
    59   30   59 1
    60   31   32 ar
    61   31   60 1
    62   32   33 ar
    63   32   61 1
    64   33   34 ar
    65   33   62 1
    66   34   35 1
@<TRIPOS>MOLECULE
ZINC40783608
   53    57     0     0     0
SMALL
USER_CHARGES

@<TRIPOS>ATOM
      1 C1          0.0444    1.5167   -0.0512 C.3       1 <0>        -0.1154
      2 C2          0.0605    0.0098   -0.0489 C.ar      1 <0>        -0.0644
      3 C3          0.0372   -0.6932   -1.2447 C.ar      1 <0>        -0.1053
      4 C4          0.0517   -2.0634   -1.2703 C.ar      1 <0>        -0.0606
      5 C5          0.0906   -2.8081   -0.0689 C.ar      1 <0>         0.0961
      6 C6          0.1135   -2.0588    1.1293 C.ar      1 <0>        -0.1420
      7 C7          0.1046   -0.6866    1.1452 C.ar      1 <0>        -0.0648
      8 S1          0.1598   -3.3298    2.3699 S.3       1 <0>        -0.0044
      9 C8          0.1463   -4.7293    1.2585 C.2       1 <0>         0.3728
     10 N1          0.1093   -4.1506    0.0798 N.2       1 <0>        -0.4966
     11 N2          0.1690   -6.0772    1.5618 N.pl3     1 <0>        -0.5924
     12 C9          0.1528   -7.0210    0.5392 C.ar      1 <0>         0.3639
     13 C10         0.1695   -8.3852    0.8335 C.ar      1 <0>         0.0924
     14 C11         0.1516   -9.2895   -0.2304 C.ar      1 <0>         0.3494
     15 N3          0.1195   -8.8197   -1.4750 N.ar      1 <0>        -0.5154
     16 C12         0.1045   -7.5231   -1.7093 C.ar      1 <0>         0.2927
     17 N4          0.1154   -6.6367   -0.7344 N.ar      1 <0>        -0.4725
     18 N5          0.1676  -10.6587    0.0068 N.pl3     1 <0>        -0.6469
     19 C13        -1.0858  -11.4248    0.0509 C.3       1 <0>         0.1308
     20 C14        -0.9925  -12.5756   -0.9587 C.3       1 <0>         0.0928
     21 N6          0.2781  -13.2834   -0.7479 N.pl3     1 <0>        -0.5808
     22 C15         1.5315  -12.5173   -0.7919 C.3       1 <0>         0.0819
     23 C16         1.4385  -11.3675    0.2121 C.3       1 <0>         0.1326
     24 C17         0.2941  -14.6530   -0.5106 C.ar      1 <0>         0.4444
     25 C18        -0.8861  -15.3835   -0.6083 C.ar      1 <0>        -0.2008
     26 C19        -0.8558  -16.7453   -0.3696 C.ar      1 <0>         0.0376
     27 C20         0.3583  -17.3336   -0.0398 C.ar      1 <0>        -0.1725
     28 C21         1.4906  -16.5484    0.0395 C.ar      1 <0>         0.1461
     29 N7          1.4331  -15.2516   -0.1989 N.ar      1 <0>        -0.5091
     30 N8          0.2040   -8.8359    2.1626 N.pl3     1 <0>        -0.8617
     31 H1          1.0676    1.8910   -0.0833 H         1 <0>         0.0772
     32 H2         -0.5003    1.8728   -0.9256 H         1 <0>         0.0735
     33 H3         -0.4458    1.8762    0.8535 H         1 <0>         0.0711
     34 H4          0.0066   -0.1483   -2.1767 H         1 <0>         0.1356
     35 H5          0.0327   -2.5801   -2.2185 H         1 <0>         0.1347
     36 H6          0.1276   -0.1538    2.0844 H         1 <0>         0.1336
     37 H7          0.1962   -6.3656    2.4875 H         1 <0>         0.4334
     38 H8          0.0788   -7.1762   -2.7317 H         1 <0>         0.2013
     39 H9         -1.2330  -11.8282    1.0528 H         1 <0>         0.0698
     40 H10        -1.9210  -10.7753   -0.2110 H         1 <0>         0.0996
     41 H11        -1.8241  -13.2637   -0.8070 H         1 <0>         0.1068
     42 H12        -1.0250  -12.1764   -1.9725 H         1 <0>         0.1034
     43 H13         2.3667  -13.1669   -0.5300 H         1 <0>         0.0822
     44 H14         1.6787  -12.1140   -1.7938 H         1 <0>         0.1080
     45 H15         2.2700  -10.6800    0.0567 H         1 <0>         0.0983
     46 H16         1.4752  -11.7666    1.2257 H         1 <0>         0.0679
     47 H17        -1.8133  -14.8936   -0.8666 H         1 <0>         0.1783
     48 H18        -1.7560  -17.3380   -0.4377 H         1 <0>         0.1737
     49 H19         0.4158  -18.3947    0.1529 H         1 <0>         0.1798
     50 H20         2.4368  -17.0017    0.2959 H         1 <0>         0.2052
     51 H21         0.2905   -8.1986    2.8887 H         1 <0>         0.3969
     52 H22         0.1412   -9.7846    2.3548 H         1 <0>         0.4051
     53 H23         2.2445  -14.7234   -0.1402 H         1 <0>         0.4370
@<TRIPOS>BOND
     1    1    2 1
     2    1   31 1
     3    1   32 1
     4    1   33 1
     5    2    7 ar
     6    2    3 ar
     7    3    4 ar
     8    3   34 1
     9    4    5 ar
    10    4   35 1
    11    5   10 1
    12    5    6 ar
    13    6    7 ar
    14    6    8 1
    15    7   36 1
    16    8    9 1
    17    9   10 2
    18    9   11 1
    19   11   12 1
    20   11   37 1
    21   12   17 ar
    22   12   13 ar
    23   13   14 ar
    24   13   30 1
    25   14   15 ar
    26   14   18 1
    27   15   16 ar
    28   16   17 ar
    29   16   38 1
    30   18   23 1
    31   18   19 1
    32   19   20 1
    33   19   39 1
    34   19   40 1
    35   20   21 1
    36   20   41 1
    37   20   42 1
    38   21   22 1
    39   21   24 1
    40   22   23 1
    41   22   43 1
    42   22   44 1
    43   23   45 1
    44   23   46 1
    45   24   29 ar
    46   24   25 ar
    47   25   26 ar
    48   25   47 1
    49   26   27 ar
    50   26   48 1
    51   27   28 ar
    52   27   49 1
    53   28   29 ar
    54   28   50 1
    55   29   53 1
    56   30   51 1
    57   30   52 1
@<TRIPOS>MOLECULE
ZINC38719980
   60    65     0     0     0
SMALL
USER_CHARGES

@<TRIPOS>ATOM
      1 C1         -0.0163    1.3538    0.0095 C.ar      1 <0>        -0.1404
      2 C2          1.1633    2.1011    0.0022 C.ar      1 <0>         0.0462
      3 C3          2.3838    1.5109   -0.0130 C.ar      1 <0>        -0.2019
      4 C4          2.4830    0.0956   -0.0215 C.ar      1 <0>         0.3163
      5 N1          3.5306   -0.7053   -0.0361 N.pl3     1 <0>        -0.5903
      6 C5          3.0748   -2.0987   -0.0390 C.3       1 <0>         0.0849
      7 C6          1.5630   -2.0441   -0.0238 C.2       1 <0>         0.1298
      8 C7          1.2366   -0.6872   -0.0133 C.ar      1 <0>        -0.1316
      9 C8          0.0021   -0.0041    0.0020 C.ar      1 <0>        -0.0211
     10 C9          0.6757   -3.1294   -0.0208 C.2       1 <0>         0.1950
     11 N2         -0.6254   -3.0089   -0.0134 N.2       1 <0>        -0.1522
     12 N3         -1.2272   -4.2757   -0.0131 N.pl3     1 <0>        -0.5936
     13 C10        -0.1150   -5.2411   -0.0215 C.3       1 <0>         0.2946
     14 H1         -0.1546   -5.8594   -0.9183 H         1 <0>         0.1637
     15 O1          1.0663   -4.4274   -0.0311 O.3       1 <0>        -0.3003
     16 S1         -0.1666   -6.2797    1.4649 S.3       1 <0>        -0.1036
     17 C11        -0.0187   -5.0967    2.8321 C.3       1 <0>        -0.1379
     18 C12        -0.0483   -5.8385    4.1436 C.2       1 <0>         0.5340
     19 O2         -0.1584   -7.0458    4.1548 O.2       1 <0>        -0.4343
     20 N4          0.0475   -5.1598    5.3040 N.am      1 <0>        -0.6885
     21 C13         0.0210   -5.8232    6.4769 C.2       1 <0>         0.6938
     22 O3         -0.0893   -7.0335    6.4881 O.2       1 <0>        -0.5133
     23 N5          0.1168   -5.1444    7.6373 N.am      1 <0>        -0.7287
     24 C14         0.0880   -5.8655    8.9122 C.3       1 <0>         0.1988
     25 C15        -1.2329   -6.6273    9.0376 C.3       1 <0>        -0.1234
     26 C16        -1.2630   -7.3804   10.3691 C.3       1 <0>        -0.0825
     27 C17        -1.1382   -6.3826   11.5222 C.3       1 <0>        -0.1127
     28 C18         0.1827   -5.6209   11.3969 C.3       1 <0>        -0.0803
     29 C19         0.2128   -4.8678   10.0654 C.3       1 <0>        -0.1129
     30 C20         1.3488   -6.6100   11.4498 C.3       1 <0>        -0.1125
     31 C21         1.2240   -7.6077   10.2967 C.3       1 <0>        -0.0824
     32 C22        -0.0969   -8.3695   10.4220 C.3       1 <0>        -0.1113
     33 C23         1.2541   -6.8546    8.9652 C.3       1 <0>        -0.1229
     34 H2         -0.9659    1.8680    0.0259 H         1 <0>         0.1574
     35 H3          1.1017    3.1793    0.0086 H         1 <0>         0.1624
     36 H4          3.2781    2.1164   -0.0190 H         1 <0>         0.1627
     37 H5          3.4229   -2.6055   -0.9390 H         1 <0>         0.1806
     38 H6          3.4406   -2.6151    0.8484 H         1 <0>         0.1786
     39 H7         -0.9245   -0.5589    0.0082 H         1 <0>         0.1612
     40 H8         -2.1766   -4.4743   -0.0084 H         1 <0>         0.4721
     41 H9          0.9224   -4.5540    2.7428 H         1 <0>         0.1176
     42 H10        -0.8494   -4.3921    2.7944 H         1 <0>         0.1186
     43 H11         0.1355   -4.1938    5.2950 H         1 <0>         0.4078
     44 H12         0.2049   -4.1785    7.6284 H         1 <0>         0.3961
     45 H13        -2.0637   -5.9226    8.9999 H         1 <0>         0.0597
     46 H14        -1.3218   -7.3381    8.2160 H         1 <0>         0.0859
     47 H15        -2.2041   -7.9231   10.4584 H         1 <0>         0.0748
     48 H16        -1.9690   -5.6780   11.4845 H         1 <0>         0.0631
     49 H17        -1.1597   -6.9192   12.4708 H         1 <0>         0.0680
     50 H18         0.2716   -4.9101   12.2185 H         1 <0>         0.0778
     51 H19         1.1539   -4.3251    9.9761 H         1 <0>         0.0688
     52 H20        -0.6180   -4.1631   10.0277 H         1 <0>         0.0693
     53 H21         2.2899   -6.0673   11.3605 H         1 <0>         0.0627
     54 H22         1.3274   -7.1465   12.3984 H         1 <0>         0.0679
     55 H23         2.0548   -8.3124   10.3344 H         1 <0>         0.0745
     56 H24        -0.1183   -8.9060   11.3706 H         1 <0>         0.0658
     57 H25        -0.1858   -9.0803    9.6004 H         1 <0>         0.0659
     58 H26         1.1652   -7.5654    8.1436 H         1 <0>         0.0859
     59 H27         2.1952   -6.3119    8.8759 H         1 <0>         0.0592
     60 H28         4.4569   -0.4177   -0.0443 H         1 <0>         0.4570
@<TRIPOS>BOND
     1    1    9 ar
     2    1    2 ar
     3    1   34 1
     4    2    3 ar
     5    2   35 1
     6    3    4 ar
     7    3   36 1
     8    4    8 ar
     9    4    5 2
    10    5    6 1
    11    5   60 1
    12    6    7 1
    13    6   37 1
    14    6   38 1
    15    7    8 2
    16    7   10 1
    17    8    9 ar
    18    9   39 1
    19   10   15 1
    20   10   11 2
    21   11   12 1
    22   12   13 1
    23   12   40 1
    24   13   14 1
    25   13   15 1
    26   13   16 1
    27   16   17 1
    28   17   18 1
    29   17   41 1
    30   17   42 1
    31   18   19 2
    32   18   20 am
    33   20   21 am
    34   20   43 1
    35   21   22 2
    36   21   23 am
    37   23   24 1
    38   23   44 1
    39   24   29 1
    40   24   33 1
    41   24   25 1
    42   25   26 1
    43   25   45 1
    44   25   46 1
    45   26   32 1
    46   26   27 1
    47   26   47 1
    48   27   28 1
    49   27   48 1
    50   27   49 1
    51   28   29 1
    52   28   30 1
    53   28   50 1
    54   29   51 1
    55   29   52 1
    56   30   31 1
    57   30   53 1
    58   30   54 1
    59   31   32 1
    60   31   33 1
    61   31   55 1
    62   32   56 1
    63   32   57 1
    64   33   58 1
    65   33   59 1
@<TRIPOS>MOLECULE
ZINC01621263
   55    58     0     0     0
SMALL
USER_CHARGES
4-[4-[4-(2,4-diaminophenoxy)phenyl]sulfonylphenoxy]benzene-1,3-diamine
@<TRIPOS>ATOM
      1 C1         -3.8555    5.6728    0.1531 C.ar      1 <0>        -0.2096
      2 C2         -3.7575    7.0462    0.2629 C.ar      1 <0>         0.0168
      3 C3         -4.9006    7.8148    0.3830 C.ar      1 <0>        -0.6958
      4 C4         -6.1448    7.2116    0.3888 C.ar      1 <0>         0.0152
      5 C5         -6.2488    5.8390    0.2745 C.ar      1 <0>        -0.1702
      6 C6         -5.1032    5.0653    0.1533 C.ar      1 <0>         0.1726
      7 O1         -5.2027    3.7149    0.0407 O.3       1 <0>        -0.2361
      8 C7         -4.0530    2.9869    0.0470 C.ar      1 <0>        -0.0725
      9 C8         -3.4948    2.5631   -1.1477 C.ar      1 <0>        -0.0214
     10 C9         -2.3242    1.8280   -1.1434 C.ar      1 <0>        -0.2394
     11 C10        -1.7105    1.5024    0.0592 C.ar      1 <0>         0.2710
     12 C11        -2.2661    1.9248    1.2590 C.ar      1 <0>        -0.2719
     13 C12        -3.4373    2.6672    1.2553 C.ar      1 <0>         0.2639
     14 N1         -4.0002    3.0941    2.4631 N.pl3     1 <0>        -0.8661
     15 N2         -0.5289    0.7533    0.0609 N.pl3     1 <0>        -0.8713
     16 S1         -4.7716    9.5660    0.5296 S.o2      1 <0>         2.5862
     17 O2         -3.5269    9.9315   -0.0504 O.2       1 <0>        -0.9359
     18 O3         -6.0082   10.1033    0.0810 O.2       1 <0>        -0.9352
     19 C13        -4.6549    9.9377    2.2480 C.ar      1 <0>        -0.6643
     20 C14        -5.8025   10.1716    2.9830 C.ar      1 <0>        -0.0061
     21 C15        -5.7142   10.4585    4.3313 C.ar      1 <0>        -0.1572
     22 C16        -4.4716   10.5223    4.9459 C.ar      1 <0>         0.1576
     23 C17        -3.3211   10.2923    4.2048 C.ar      1 <0>        -0.1460
     24 C18        -3.4155   10.0006    2.8579 C.ar      1 <0>        -0.0052
     25 O4         -4.3816   10.8089    6.2709 O.3       1 <0>        -0.2688
     26 C19        -4.6678    9.8189    7.1596 C.ar      1 <0>        -0.0176
     27 C20        -5.1199    8.5906    6.7064 C.ar      1 <0>        -0.0966
     28 C21        -5.4107    7.5836    7.6076 C.ar      1 <0>        -0.2199
     29 C22        -5.2500    7.8003    8.9700 C.ar      1 <0>         0.2409
     30 C23        -4.7972    9.0295    9.4291 C.ar      1 <0>        -0.2504
     31 C24        -4.5007   10.0387    8.5253 C.ar      1 <0>         0.2549
     32 N3         -4.0391   11.2772    8.9844 N.pl3     1 <0>        -0.8703
     33 N4         -5.5442    6.7791    9.8800 N.pl3     1 <0>        -0.8769
     34 H1         -2.9621    5.0725    0.0637 H         1 <0>         0.1398
     35 H2         -2.7869    7.5199    0.2587 H         1 <0>         0.1434
     36 H3         -7.0361    7.8142    0.4831 H         1 <0>         0.1491
     37 H4         -7.2209    5.3683    0.2790 H         1 <0>         0.1430
     38 H5         -3.9722    2.8115   -2.0841 H         1 <0>         0.1319
     39 H6         -1.8884    1.5028   -2.0765 H         1 <0>         0.1270
     40 H7         -1.7866    1.6759    2.1942 H         1 <0>         0.1262
     41 H8         -3.5711    2.8708    3.3039 H         1 <0>         0.4020
     42 H9         -4.8195    3.6134    2.4596 H         1 <0>         0.4013
     43 H10        -0.0980    0.5292    0.9006 H         1 <0>         0.4001
     44 H11        -0.1427    0.4546   -0.7772 H         1 <0>         0.4019
     45 H12        -6.7690   10.1262    2.5033 H         1 <0>         0.1496
     46 H13        -6.6111   10.6367    4.9059 H         1 <0>         0.1424
     47 H14        -2.3528   10.3417    4.6805 H         1 <0>         0.1424
     48 H15        -2.5205    9.8212    2.2807 H         1 <0>         0.1494
     49 H16        -5.2451    8.4192    5.6475 H         1 <0>         0.1265
     50 H17        -5.7631    6.6268    7.2518 H         1 <0>         0.1207
     51 H18        -4.6718    9.1983   10.4884 H         1 <0>         0.1275
     52 H19        -3.8351   11.9836    8.3518 H         1 <0>         0.4047
     53 H20        -3.9230   11.4293    9.9354 H         1 <0>         0.3994
     54 H21        -5.8603    5.9200    9.5594 H         1 <0>         0.3989
     55 H22        -5.4320    6.9303   10.8316 H         1 <0>         0.3981
@<TRIPOS>BOND
     1    1    6 ar
     2    1    2 ar
     3    1   34 1
     4    2    3 ar
     5    2   35 1
     6    3    4 ar
     7    3   16 1
     8    4    5 ar
     9    4   36 1
    10    5    6 ar
    11    5   37 1
    12    6    7 1
    13    7    8 1
    14    8   13 ar
    15    8    9 ar
    16    9   10 ar
    17    9   38 1
    18   10   11 ar
    19   10   39 1
    20   11   12 ar
    21   11   15 1
    22   12   13 ar
    23   12   40 1
    24   13   14 1
    25   14   41 1
    26   14   42 1
    27   15   43 1
    28   15   44 1
    29   16   17 2
    30   16   18 2
    31   16   19 1
    32   19   24 ar
    33   19   20 ar
    34   20   21 ar
    35   20   45 1
    36   21   22 ar
    37   21   46 1
    38   22   23 ar
    39   22   25 1
    40   23   24 ar
    41   23   47 1
    42   24   48 1
    43   25   26 1
    44   26   31 ar
    45   26   27 ar
    46   27   28 ar
    47   27   49 1
    48   28   29 ar
    49   28   50 1
    50   29   30 ar
    51   29   33 1
    52   30   31 ar
    53   30   51 1
    54   31   32 1
    55   32   52 1
    56   32   53 1
    57   33   54 1
    58   33   55 1
@<TRIPOS>MOLECULE
ZINC16621331
   57    60     0     0     0
SMALL
USER_CHARGES
6-[[4-amino-5-(4-tert-butylphenyl)-1,2,4-triazol-3-yl]sulfanylmethyl]-N'-(4-fluorophenyl)-1,3,5-triazine-2,4-diamine
@<TRIPOS>ATOM
      1 C1          0.7412    6.2976   -1.5939 C.3       1 <0>        -0.1399
      2 C2         -0.1394    5.8379   -0.4302 C.3       1 <0>        -0.0333
      3 C3         -1.5652    6.3539   -0.6347 C.3       1 <0>        -0.1461
      4 C4          0.4199    6.3912    0.8821 C.3       1 <0>        -0.1403
      5 C5         -0.1532    4.3320   -0.3751 C.ar      1 <0>        -0.0491
      6 C6          1.0304    3.6385   -0.1953 C.ar      1 <0>        -0.1198
      7 C7          1.0246    2.2599   -0.1434 C.ar      1 <0>        -0.0690
      8 C8         -0.1788    1.5648   -0.2733 C.ar      1 <0>        -0.0339
      9 C9         -1.3684    2.2703   -0.4607 C.ar      1 <0>        -0.0863
     10 C10        -1.3495    3.6490   -0.5049 C.ar      1 <0>        -0.1266
     11 C11        -0.1924    0.0874   -0.2187 C.2       1 <0>         0.2687
     12 N1          0.7762   -0.6863    0.2129 N.2       1 <0>        -0.2650
     13 N2          0.4270   -1.9195    0.1198 N.2       1 <0>        -0.2701
     14 C12        -0.7866   -2.0087   -0.3772 C.2       1 <0>         0.1175
     15 N3         -1.2250   -0.7356   -0.6051 N.pl3     1 <0>        -0.3031
     16 N4         -2.4357   -0.3581   -1.1128 N.3       1 <0>        -0.5809
     17 S1         -1.6831   -3.4939   -0.6856 S.3       1 <0>         0.0390
     18 C13        -0.4668   -4.7156   -0.1341 C.3       1 <0>        -0.0361
     19 C14        -1.0317   -6.1016   -0.3100 C.ar      1 <0>         0.4433
     20 N5         -1.7104   -6.6664    0.6736 N.ar      1 <0>        -0.6154
     21 C15        -2.2155   -7.8882    0.5201 C.ar      1 <0>         0.6332
     22 N6         -2.0274   -8.5445   -0.6198 N.ar      1 <0>        -0.6357
     23 C16        -1.3400   -7.9756   -1.6041 C.ar      1 <0>         0.6308
     24 N7         -0.8426   -6.7511   -1.4450 N.ar      1 <0>        -0.6145
     25 N8         -1.1422   -8.6536   -2.7910 N.pl3     1 <0>        -0.6219
     26 C17        -1.5644   -9.9820   -2.9169 C.ar      1 <0>         0.1483
     27 C18        -1.5250  -10.8312   -1.8189 C.ar      1 <0>        -0.0836
     28 C19        -1.9474  -12.1402   -1.9439 C.ar      1 <0>        -0.1330
     29 C20        -2.3988  -12.6093   -3.1661 C.ar      1 <0>         0.0845
     30 C21        -2.4335  -11.7658   -4.2637 C.ar      1 <0>        -0.1313
     31 C22        -2.0179  -10.4544   -4.1415 C.ar      1 <0>        -0.1142
     32 F1         -2.8063  -13.8916   -3.2876 F         1 <0>        -0.1387
     33 N9         -2.9287   -8.4748    1.5455 N.pl3     1 <0>        -0.7989
     34 H1          0.3427    5.9034   -2.5288 H         1 <0>         0.0569
     35 H2          0.7512    7.3868   -1.6338 H         1 <0>         0.0603
     36 H3          1.7569    5.9300   -1.4482 H         1 <0>         0.0585
     37 H4         -2.1925    6.0264    0.1943 H         1 <0>         0.0597
     38 H5         -1.5552    7.4431   -0.6746 H         1 <0>         0.0599
     39 H6         -1.9636    5.9598   -1.5696 H         1 <0>         0.0594
     40 H7          1.4356    6.0236    1.0278 H         1 <0>         0.0587
     41 H8          0.4299    7.4804    0.8422 H         1 <0>         0.0603
     42 H9         -0.2075    6.0637    1.7111 H         1 <0>         0.0575
     43 H10         1.9608    4.1775   -0.0949 H         1 <0>         0.1290
     44 H11         1.9492    1.7197   -0.0030 H         1 <0>         0.1351
     45 H12        -2.3023    1.7381   -0.5664 H         1 <0>         0.1455
     46 H13        -2.2699    4.1963   -0.6451 H         1 <0>         0.1324
     47 H14        -2.4016   -0.2937   -2.1191 H         1 <0>         0.3698
     48 H15        -3.1651   -0.9887   -0.8153 H         1 <0>         0.3777
     49 H16         0.4426   -4.6160   -0.7267 H         1 <0>         0.1331
     50 H17        -0.2352   -4.5484    0.9178 H         1 <0>         0.1336
     51 H18        -0.7107   -8.2090   -3.5374 H         1 <0>         0.4303
     52 H19        -1.1687  -10.4669   -0.8666 H         1 <0>         0.1435
     53 H20        -1.9217  -12.7995   -1.0889 H         1 <0>         0.1392
     54 H21        -2.7863  -12.1336   -5.2159 H         1 <0>         0.1413
     55 H22        -2.0458   -9.7967   -4.9977 H         1 <0>         0.1376
     56 H23        -3.2932   -9.3669    1.4344 H         1 <0>         0.4200
     57 H24        -3.0656   -7.9951    2.3774 H         1 <0>         0.4219
@<TRIPOS>BOND
     1    1    2 1
     2    1   34 1
     3    1   35 1
     4    1   36 1
     5    2    3 1
     6    2    4 1
     7    2    5 1
     8    3   37 1
     9    3   38 1
    10    3   39 1
    11    4   40 1
    12    4   41 1
    13    4   42 1
    14    5   10 ar
    15    5    6 ar
    16    6    7 ar
    17    6   43 1
    18    7    8 ar
    19    7   44 1
    20    8    9 ar
    21    8   11 1
    22    9   10 ar
    23    9   45 1
    24   10   46 1
    25   11   15 1
    26   11   12 2
    27   12   13 1
    28   13   14 2
    29   14   15 1
    30   14   17 1
    31   15   16 1
    32   16   47 1
    33   16   48 1
    34   17   18 1
    35   18   19 1
    36   18   49 1
    37   18   50 1
    38   19   24 ar
    39   19   20 ar
    40   20   21 ar
    41   21   22 ar
    42   21   33 1
    43   22   23 ar
    44   23   24 ar
    45   23   25 1
    46   25   26 1
    47   25   51 1
    48   26   31 ar
    49   26   27 ar
    50   27   28 ar
    51   27   52 1
    52   28   29 ar
    53   28   53 1
    54   29   30 ar
    55   29   32 1
    56   30   31 ar
    57   30   54 1
    58   31   55 1
    59   33   56 1
    60   33   57 1
@<TRIPOS>MOLECULE
ZINC26464413
   54    58     0     0     0
SMALL
USER_CHARGES
6-[(4-amino-5,6,7,8-tetrahydrobenzothiopheno[3,2-e]pyrimidin-2-yl)sulfanylmethyl]-N'-(2-methoxyphenyl)-1,3,5-triazine-2,4-diamine
@<TRIPOS>ATOM
      1 C1         -1.6232    4.6042    0.4920 C.3       1 <0>         0.0271
      2 O1         -1.9065    4.5957    1.8926 O.3       1 <0>        -0.3218
      3 C2         -1.7676    5.7738    2.5577 C.ar      1 <0>         0.0946
      4 C3         -1.3622    6.9110    1.8784 C.ar      1 <0>        -0.1868
      5 C4         -1.2270    8.1093    2.5549 C.ar      1 <0>        -0.1031
      6 C5         -1.4845    8.1744    3.9118 C.ar      1 <0>        -0.1342
      7 C6         -1.8840    7.0431    4.5979 C.ar      1 <0>        -0.1017
      8 C7         -2.0273    5.8386    3.9248 C.ar      1 <0>         0.1407
      9 N1         -2.4325    4.6907    4.6178 N.pl3     1 <0>        -0.6250
     10 C8         -3.0980    4.8100    5.8219 C.ar      1 <0>         0.6311
     11 N2         -3.3850    3.7232    6.5354 N.ar      1 <0>        -0.6213
     12 C9         -4.0169    3.8369    7.6902 C.ar      1 <0>         0.4429
     13 N3         -4.3761    5.0280    8.1366 N.ar      1 <0>        -0.6256
     14 C10        -4.0975    6.1187    7.4263 C.ar      1 <0>         0.6317
     15 N4         -3.4574    6.0090    6.2673 N.ar      1 <0>        -0.6438
     16 N5         -4.4727    7.3618    7.8935 N.pl3     1 <0>        -0.8268
     17 C11        -4.3339    2.6048    8.4979 C.3       1 <0>        -0.0513
     18 S1         -5.9552    1.9645    8.0105 S.3       1 <0>         0.0712
     19 C12        -6.0668    0.5685    9.0797 C.ar      1 <0>         0.3588
     20 N6         -5.0660    0.3032    9.9114 N.ar      1 <0>        -0.6020
     21 C13        -5.0954   -0.7267   10.7401 C.ar      1 <0>         0.5108
     22 C14        -6.2280   -1.5887   10.7383 C.ar      1 <0>        -0.2584
     23 C15        -6.4731   -2.7786   11.5566 C.2       1 <0>        -0.0778
     24 C16        -7.6385   -3.4265   11.3602 C.2       1 <0>        -0.1534
     25 S2         -8.4705   -2.5080   10.0924 S.3       1 <0>         0.1152
     26 C17        -7.2480   -1.2503    9.8276 C.ar      1 <0>         0.1622
     27 N7         -7.1465   -0.2007    9.0349 N.ar      1 <0>        -0.5067
     28 C18        -8.1221   -4.6579   12.0639 C.3       1 <0>        -0.0416
     29 C19        -6.9324   -5.2994   12.7920 C.3       1 <0>        -0.1150
     30 C20        -6.1854   -4.2101   13.5670 C.3       1 <0>        -0.1197
     31 C21        -5.4674   -3.2782   12.5903 C.3       1 <0>        -0.0713
     32 N8         -4.0350   -0.9670   11.5947 N.pl3     1 <0>        -0.8531
     33 H1         -1.7741    3.5950    0.0813 H         1 <0>         0.1027
     34 H2         -0.5799    4.9134    0.3308 H         1 <0>         0.0569
     35 H3         -2.2975    5.3107   -0.0142 H         1 <0>         0.0568
     36 H4         -1.1559    6.8626    0.8194 H         1 <0>         0.1311
     37 H5         -0.9151    8.9958    2.0228 H         1 <0>         0.1244
     38 H6         -1.3729    9.1115    4.4369 H         1 <0>         0.1256
     39 H7         -2.0848    7.0969    5.6577 H         1 <0>         0.1638
     40 H8         -2.2206    3.6942    4.2029 H         1 <0>         0.4591
     41 H9         -4.2422    8.2627    7.3060 H         1 <0>         0.4408
     42 H10        -5.0023    7.4517    8.8534 H         1 <0>         0.4436
     43 H11        -3.5666    1.8384    8.3140 H         1 <0>         0.1281
     44 H12        -4.3473    2.8610    9.5676 H         1 <0>         0.1280
     45 H13        -8.9029   -4.3834   12.7885 H         1 <0>         0.0877
     46 H14        -8.5366   -5.3622   11.3275 H         1 <0>         0.0862
     47 H15        -7.2996   -6.0679   13.4881 H         1 <0>         0.0786
     48 H16        -6.2588   -5.7629   12.0562 H         1 <0>         0.0706
     49 H17        -6.9025   -3.6278   14.1643 H         1 <0>         0.0710
     50 H18        -5.4459   -4.6766   14.2344 H         1 <0>         0.0749
     51 H19        -4.6588   -3.8234   12.0815 H         1 <0>         0.0850
     52 H20        -5.0453   -2.4210   13.1353 H         1 <0>         0.0780
     53 H21        -4.0659   -1.8256   12.2816 H         1 <0>         0.4323
     54 H22        -3.1607   -0.2995   11.5875 H         1 <0>         0.4285
@<TRIPOS>BOND
     1    1    2 1
     2    1   33 1
     3    1   34 1
     4    1   35 1
     5    2    3 1
     6    3    8 ar
     7    3    4 ar
     8    4    5 ar
     9    4   36 1
    10    5    6 ar
    11    5   37 1
    12    6    7 ar
    13    6   38 1
    14    7    8 ar
    15    7   39 1
    16    8    9 1
    17    9   10 1
    18    9   40 1
    19   10   15 ar
    20   10   11 ar
    21   11   12 ar
    22   12   13 ar
    23   12   17 1
    24   13   14 ar
    25   14   15 ar
    26   14   16 1
    27   16   41 1
    28   16   42 1
    29   17   18 1
    30   17   43 1
    31   17   44 1
    32   18   19 1
    33   19   27 ar
    34   19   20 ar
    35   20   21 ar
    36   21   22 ar
    37   21   32 1
    38   22   26 ar
    39   22   23 1
    40   23   31 1
    41   23   24 2
    42   24   25 1
    43   24   28 1
    44   25   26 1
    45   26   27 ar
    46   28   29 1
    47   28   45 1
    48   28   46 1
    49   29   30 1
    50   29   47 1
    51   29   48 1
    52   30   31 1
    53   30   49 1
    54   30   50 1
    55   31   51 1
    56   31   52 1
    57   32   53 1
    58   32   54 1
@<TRIPOS>MOLECULE
ZINC39709738
   61    64     0     0     0
SMALL
USER_CHARGES

@<TRIPOS>ATOM
      1 C1         -0.0167    1.3837    0.0096 C.ar      1 <0>        -0.1444
      2 C2          0.0021   -0.0041    0.0020 C.ar      1 <0>        -0.0978
      3 C3         -1.1734   -0.7229    0.0089 C.ar      1 <0>        -0.1301
      4 C4         -2.3924   -0.0535    0.0242 C.ar      1 <0>         0.0947
      5 N1         -3.7041   -0.4723    0.0336 N.pl3     1 <0>        -0.5947
      6 C5         -4.5386    0.6120    0.0473 C.2       1 <0>         0.0614
      7 C6         -3.8178    1.7444    0.0473 C.2       1 <0>        -0.1737
      8 C7         -2.4061    1.3535    0.0323 C.ar      1 <0>        -0.1003
      9 C8         -1.2031    2.0617    0.0303 C.ar      1 <0>        -0.0714
     10 C9         -4.3583    3.1511    0.0598 C.3       1 <0>        -0.0520
     11 C10        -4.4370    3.6799   -1.3738 C.3       1 <0>         0.1259
     12 N2         -4.9624    5.0474   -1.3617 N.am      1 <0>        -0.7359
     13 C11        -5.1198    5.7191   -2.5195 C.2       1 <0>         0.5081
     14 O1         -4.8264    5.1915   -3.5714 O.2       1 <0>        -0.5129
     15 C12        -5.6603    7.1258   -2.5070 C.3       1 <0>        -0.1454
     16 C13        -5.7390    7.6546   -3.9406 C.3       1 <0>         0.1144
     17 H1         -6.3177    6.9590   -4.5482 H         1 <0>         0.1059
     18 C14        -6.4452    9.0422   -3.9370 C.3       1 <0>        -0.0947
     19 S1         -5.8095    9.6755   -5.5538 S.3       1 <0>        -0.3092
     20 C15        -4.1898    8.7971   -5.5279 C.3       1 <0>         0.4122
     21 H2         -3.3869    9.4781   -5.2455 H         1 <0>         0.1141
     22 N3         -4.3857    7.7633   -4.4892 N.3       1 <0>        -0.6927
     23 N4         -3.9124    8.1844   -6.8294 N.am      1 <0>        -0.7160
     24 C16        -3.5014    8.9491   -7.8603 C.2       1 <0>         0.7089
     25 O2         -3.3608   10.1475   -7.7101 O.2       1 <0>        -0.5800
     26 N5         -3.2463    8.3855   -9.0577 N.am      1 <0>        -0.7391
     27 C17        -2.7995    9.2168  -10.1783 C.3       1 <0>         0.1645
     28 C18        -1.2821    9.3987  -10.1051 C.3       1 <0>        -0.1295
     29 C19        -0.8155   10.2668  -11.2754 C.3       1 <0>        -0.1175
     30 C20        -1.1844    9.5854  -12.5947 C.3       1 <0>        -0.1225
     31 C21        -2.7018    9.4035  -12.6679 C.3       1 <0>        -0.1159
     32 C22        -3.1684    8.5354  -11.4976 C.3       1 <0>        -0.1266
     33 H3          0.9136    1.9321    0.0037 H         1 <0>         0.1227
     34 H4          0.9476   -0.5258   -0.0098 H         1 <0>         0.1256
     35 H5         -1.1483   -1.8026    0.0022 H         1 <0>         0.1199
     36 H6         -5.6175    0.5639    0.0568 H         1 <0>         0.1702
     37 H7         -3.9934   -1.3981    0.0305 H         1 <0>         0.4172
     38 H8         -1.2101    3.1417    0.0361 H         1 <0>         0.1200
     39 H9         -5.3540    3.1538    0.5032 H         1 <0>         0.0757
     40 H10        -3.6975    3.7891    0.6466 H         1 <0>         0.0763
     41 H11        -3.4412    3.6772   -1.8172 H         1 <0>         0.0686
     42 H12        -5.0978    3.0420   -1.9607 H         1 <0>         0.0666
     43 H13        -5.1971    5.4694   -0.5204 H         1 <0>         0.3993
     44 H14        -6.6560    7.1285   -2.0636 H         1 <0>         0.1104
     45 H15        -4.9995    7.7638   -1.9202 H         1 <0>         0.0987
     46 H16        -7.5303    8.9399   -3.9450 H         1 <0>         0.1189
     47 H17        -6.1100    9.6607   -3.1043 H         1 <0>         0.0968
     48 H18        -3.7031    7.8568   -3.7521 H         1 <0>         0.3598
     49 H19        -4.0247    7.2284   -6.9493 H         1 <0>         0.4052
     50 H20        -3.3585    7.4295   -9.1775 H         1 <0>         0.3963
     51 H21        -3.2853   10.1910  -10.1243 H         1 <0>         0.0887
     52 H22        -1.0193    9.8841   -9.1652 H         1 <0>         0.0675
     53 H23        -0.7963    8.4244  -10.1591 H         1 <0>         0.0622
     54 H24        -1.3013   11.2411  -11.2214 H         1 <0>         0.0648
     55 H25         0.2655   10.3964  -11.2232 H         1 <0>         0.0646
     56 H26        -0.8520   10.2038  -13.4284 H         1 <0>         0.0641
     57 H27        -0.6986    8.6111  -12.6487 H         1 <0>         0.0624
     58 H28        -3.1876   10.3777  -12.6139 H         1 <0>         0.0658
     59 H29        -2.9646    8.9180  -13.6077 H         1 <0>         0.0675
     60 H30        -2.6826    7.5611  -11.5516 H         1 <0>         0.0677
     61 H31        -4.2494    8.4058  -11.5497 H         1 <0>         0.0688
@<TRIPOS>BOND
     1    1    2 ar
     2    1   33 1
     3    1    9 ar
     4    2    3 ar
     5    2   34 1
     6    3    4 ar
     7    3   35 1
     8    4    5 1
     9    4    8 ar
    10    5   37 1
    11    5    6 1
    12    6    7 2
    13    6   36 1
    14    7    8 1
    15    7   10 1
    16    8    9 ar
    17    9   38 1
    18   10   11 1
    19   10   39 1
    20   10   40 1
    21   11   12 1
    22   11   41 1
    23   11   42 1
    24   12   13 am
    25   12   43 1
    26   13   14 2
    27   13   15 1
    28   15   16 1
    29   15   44 1
    30   15   45 1
    31   16   17 1
    32   16   22 1
    33   16   18 1
    34   18   19 1
    35   18   46 1
    36   18   47 1
    37   19   20 1
    38   20   21 1
    39   20   22 1
    40   20   23 1
    41   22   48 1
    42   23   24 am
    43   23   49 1
    44   24   25 2
    45   24   26 am
    46   26   27 1
    47   26   50 1
    48   27   32 1
    49   27   28 1
    50   27   51 1
    51   28   29 1
    52   28   52 1
    53   28   53 1
    54   29   30 1
    55   29   54 1
    56   29   55 1
    57   30   31 1
    58   30   56 1
    59   30   57 1
    60   31   32 1
    61   31   58 1
    62   31   59 1
    63   32   60 1
    64   32   61 1
@<TRIPOS>MOLECULE
ZINC41026342
   52    56     0     0     0
SMALL
USER_CHARGES

@<TRIPOS>ATOM
      1 C1         -0.0167    1.3786    0.0096 C.ar      1 <0>        -0.1201
      2 C2          1.1696    2.0892    0.0021 C.ar      1 <0>        -0.1034
      3 C3          2.3774    1.4195   -0.0130 C.ar      1 <0>        -0.1118
      4 C4          2.3996    0.0309   -0.0207 C.ar      1 <0>         0.1553
      5 C5          1.2065   -0.6797   -0.0132 C.ar      1 <0>        -0.1118
      6 C6          0.0021   -0.0041    0.0020 C.ar      1 <0>        -0.1001
      7 N1          3.6226   -0.6512   -0.0366 N.pl3     1 <0>        -0.3321
      8 C7          3.8853   -1.8392    0.5847 C.ar      1 <0>         0.4213
      9 C8          5.2302   -2.1503    0.3029 C.ar      1 <0>        -0.3566
     10 C9          5.7366   -1.1052   -0.5005 C.2       1 <0>         0.1219
     11 N2          4.7859   -0.2363   -0.6971 N.2       1 <0>        -0.2489
     12 C10         5.7669   -3.3412    0.8300 C.ar      1 <0>         0.5375
     13 N3          4.9824   -4.1171    1.5683 N.ar      1 <0>        -0.6251
     14 C11         3.7195   -3.7854    1.8092 C.ar      1 <0>         0.6524
     15 N4          3.1741   -2.6780    1.3349 N.ar      1 <0>        -0.6060
     16 N5          2.9451   -4.6303    2.5848 N.pl3     1 <0>        -0.6783
     17 C12         3.5220   -5.8646    3.1233 C.3       1 <0>         0.1316
     18 C13         2.4628   -6.6095    3.9381 C.3       1 <0>         0.0607
     19 O1          1.4065   -7.0318    3.0733 O.3       1 <0>        -0.5707
     20 N6          7.0809   -3.6944    0.5837 N.pl3     1 <0>        -0.5824
     21 C14         7.5922   -4.8683    1.1094 C.2       1 <0>         0.0465
     22 C15         8.8724   -5.3747    0.9736 C.2       1 <0>        -0.2317
     23 C16         9.1627   -6.6468    1.6341 C.2       1 <0>        -0.0873
     24 C17         8.1188   -7.1689    2.3017 C.2       1 <0>        -0.2614
     25 S1          6.8045   -6.0003    2.0636 S.3       1 <0>         0.3382
     26 C18         8.4699   -8.4769    2.9576 C.3       1 <0>        -0.0294
     27 C19         9.7698   -8.9290    2.2558 C.3       1 <0>        -0.1165
     28 C20        10.3595   -7.5830    1.7882 C.3       1 <0>        -0.0606
     29 C21         9.8951   -4.6660    0.1996 C.2       1 <0>         0.5840
     30 O2         10.6175   -3.8530    0.7463 O.2       1 <0>        -0.5348
     31 N7         10.0359   -4.9144   -1.1176 N.am      1 <0>        -0.8484
     32 H1         -0.9598    1.9047    0.0260 H         1 <0>         0.1293
     33 H2          1.1517    3.1691    0.0077 H         1 <0>         0.1324
     34 H3          3.3035    1.9750   -0.0193 H         1 <0>         0.1324
     35 H4          1.2205   -1.7596   -0.0195 H         1 <0>         0.1347
     36 H5         -0.9261   -0.5562    0.0083 H         1 <0>         0.1325
     37 H6          6.7419   -1.0392   -0.8895 H         1 <0>         0.1979
     38 H7          2.0203   -4.4053    2.7719 H         1 <0>         0.4217
     39 H8          3.8593   -6.4966    2.3018 H         1 <0>         0.0812
     40 H9          4.3686   -5.6202    3.7649 H         1 <0>         0.0864
     41 H10         2.9150   -7.4809    4.4116 H         1 <0>         0.0694
     42 H11         2.0616   -5.9467    4.7048 H         1 <0>         0.0559
     43 H12         0.6979   -7.5119    3.5233 H         1 <0>         0.3849
     44 H13         7.6443   -3.1195    0.0424 H         1 <0>         0.4313
     45 H14         8.6442   -8.3326    4.0239 H         1 <0>         0.0829
     46 H15         7.6773   -9.2076    2.7967 H         1 <0>         0.0780
     47 H16        10.4397   -9.4255    2.9578 H         1 <0>         0.0831
     48 H17         9.5498   -9.5747    1.4057 H         1 <0>         0.0763
     49 H18        10.8683   -7.7056    0.8321 H         1 <0>         0.0707
     50 H19        11.0496   -7.1931    2.5364 H         1 <0>         0.0811
     51 H20         9.4602   -5.5622   -1.5532 H         1 <0>         0.4033
     52 H21        10.7129   -4.4453   -1.6300 H         1 <0>         0.4027
@<TRIPOS>BOND
     1    1    6 ar
     2    1    2 ar
     3    1   32 1
     4    2    3 ar
     5    2   33 1
     6    3    4 ar
     7    3   34 1
     8    4    5 ar
     9    4    7 1
    10    5    6 ar
    11    5   35 1
    12    6   36 1
    13    7   11 1
    14    7    8 1
    15    8   15 ar
    16    8    9 ar
    17    9   10 1
    18    9   12 ar
    19   10   11 2
    20   10   37 1
    21   12   13 ar
    22   12   20 1
    23   13   14 ar
    24   14   15 ar
    25   14   16 1
    26   16   17 1
    27   16   38 1
    28   17   18 1
    29   17   39 1
    30   17   40 1
    31   18   19 1
    32   18   41 1
    33   18   42 1
    34   19   43 1
    35   20   21 1
    36   20   44 1
    37   21   25 1
    38   21   22 2
    39   22   23 1
    40   22   29 1
    41   23   28 1
    42   23   24 2
    43   24   25 1
    44   24   26 1
    45   26   27 1
    46   26   45 1
    47   26   46 1
    48   27   28 1
    49   27   47 1
    50   27   48 1
    51   28   49 1
    52   28   50 1
    53   29   30 2
    54   29   31 am
    55   31   51 1
    56   31   52 1
@<TRIPOS>MOLECULE
ZINC03045381
   38    40     0     0     0
SMALL
USER_CHARGES
(methoxy-nitro-BLAHyl)aminothiourea
@<TRIPOS>ATOM
      1 C1         -3.6145    2.8323    0.0531 C.3       1 <0>         0.0298
      2 O1         -2.4485    3.6584    0.0590 O.3       1 <0>        -0.2768
      3 C2         -1.2470    3.0283    0.0428 C.ar      1 <0>         0.3977
      4 C3         -0.0542    3.7582    0.0472 C.ar      1 <0>         0.0031
      5 C4          1.1312    3.0611    0.0076 C.ar      1 <0>         0.1147
      6 N1          1.1336    1.7328    0.0005 N.ar      1 <0>        -0.4840
      7 C5         -0.0126    1.0758    0.0080 C.ar      1 <0>         0.3467
      8 N2         -1.1734    1.6999    0.0170 N.ar      1 <0>        -0.5546
      9 S1          2.6265    3.9821   -0.0685 S.3       1 <0>         0.0891
     10 C6          2.6565    4.9560    1.3960 C.ar      1 <0>        -0.0695
     11 C7          3.8975    5.0205    2.0518 C.ar      1 <0>        -0.0786
     12 C8          4.0792    5.7898    3.1744 C.ar      1 <0>        -0.0418
     13 C9          3.0117    6.5166    3.6715 C.ar      1 <0>        -0.0293
     14 C10         1.7919    6.4430    3.0452 C.ar      1 <0>        -0.0182
     15 C11         1.5876    5.6532    1.9048 C.ar      1 <0>        -0.0894
     16 C12         0.1696    5.6968    1.4073 C.3       1 <0>         0.3007
     17 H1         -0.4557    5.1626    2.1226 H         1 <0>         0.1168
     18 N3         -0.0698    5.1420    0.1067 N.pl3     1 <0>        -0.6449
     19 N4         -0.2627    7.1007    1.3898 N.3       1 <0>        -0.4447
     20 N5         -1.5754    7.2132    1.7506 N.pl3     1 <0>        -0.5246
     21 C13        -2.1603    8.4265    1.7954 C.2       1 <0>         0.5874
     22 S2         -3.8055    8.5675    2.2476 S.2       1 <0>        -0.6195
     23 N6         -1.4502    9.5289    1.4841 N.pl3     1 <0>        -0.7940
     24 N7          3.1834    7.3673    4.8707 N.pl3     1 <0>         0.0233
     25 O2          4.2671    7.4292    5.4233 O.2       1 <0>        -0.1460
     26 O3          2.2411    8.0053    5.3049 O.3       1 <0>        -0.1466
     27 H2         -4.5050    3.4606    0.0675 H         1 <0>         0.1105
     28 H3         -3.6188    2.2164   -0.8462 H         1 <0>         0.0674
     29 H4         -3.6089    2.1897    0.9335 H         1 <0>         0.0668
     30 H5          0.0021   -0.0041    0.0020 H         1 <0>         0.2159
     31 H6          4.7287    4.4508    1.6634 H         1 <0>         0.1630
     32 H7          5.0417    5.8268    3.6628 H         1 <0>         0.1681
     33 H8          0.9641    7.0111    3.4434 H         1 <0>         0.1667
     34 H9          0.5560    5.5405   -0.5771 H         1 <0>         0.3725
     35 H10        -0.0991    7.5181    0.4859 H         1 <0>         0.3520
     36 H11        -2.0865    6.4198    1.9746 H         1 <0>         0.4361
     37 H12        -0.5180    9.4490    1.2278 H         1 <0>         0.3995
     38 H13        -1.8712   10.4022    1.5163 H         1 <0>         0.4346
@<TRIPOS>BOND
     1    1    2 1
     2    1   27 1
     3    1   28 1
     4    1   29 1
     5    2    3 1
     6    3    8 ar
     7    3    4 ar
     8    4   18 1
     9    4    5 ar
    10    5    6 ar
    11    5    9 1
    12    6    7 ar
    13    7    8 ar
    14    7   30 1
    15    9   10 1
    16   10   15 ar
    17   10   11 ar
    18   11   12 ar
    19   11   31 1
    20   12   13 ar
    21   12   32 1
    22   13   14 ar
    23   13   24 1
    24   14   15 ar
    25   14   33 1
    26   15   16 1
    27   16   17 1
    28   16   18 1
    29   16   19 1
    30   18   34 1
    31   19   20 1
    32   19   35 1
    33   20   21 1
    34   20   36 1
    35   21   22 2
    36   21   23 1
    37   23   37 1
    38   23   38 1
    39   24   25 2
    40   24   26 1
@<TRIPOS>MOLECULE
ZINC12390145
   38    41     0     0     0
SMALL
USER_CHARGES
5-(4-amino-2,6-dioxo-3H-pyrimidin-5-yl)-6-(3,4-dichlorophenyl)-1,7-dihydropyrrolo[3,2-e]pyrimidine-2,4-dione
@<TRIPOS>ATOM
      1 C1         -0.0374    4.5085    0.0257 C.ar      1 <0>        -0.0905
      2 C2          1.1601    3.8244    0.0111 C.ar      1 <0>        -0.0907
      3 C3          1.1704    2.4399    0.0040 C.ar      1 <0>        -0.0274
      4 C4         -0.0215    1.7317    0.0116 C.ar      1 <0>        -0.0284
      5 C5         -1.2264    2.4040    0.0209 C.ar      1 <0>        -0.0783
      6 C6         -1.2428    3.8016    0.0334 C.ar      1 <0>         0.0039
      7 C7         -2.5268    4.5271    0.0495 C.2       1 <0>         0.0622
      8 C8         -3.6264    4.2374   -0.7348 C.2       1 <0>         0.0580
      9 C9         -4.6525    5.2180   -0.3694 C.2       1 <0>        -0.2570
     10 C10        -4.0961    6.0336    0.6140 C.2       1 <0>         0.3257
     11 N1         -2.8330    5.6066    0.8559 N.pl3     1 <0>        -0.5339
     12 H1         -2.2285    6.0041    1.5020 H         1 <0>         0.4249
     13 N2         -4.8647    7.0522    1.1371 N.am      1 <0>        -0.6288
     14 H2         -4.4805    7.6471    1.8431 H         1 <0>         0.4380
     15 C11        -6.1224    7.2563    0.7113 C.2       1 <0>         0.7241
     16 O1         -6.7643    8.1659    1.2002 O.2       1 <0>        -0.5380
     17 N3         -6.6984    6.4953   -0.2339 N.am      1 <0>        -0.6628
     18 H3         -7.6378    6.6868   -0.5183 H         1 <0>         0.4434
     19 C12        -6.0226    5.4738   -0.8048 C.2       1 <0>         0.5857
     20 O2         -6.5437    4.7830   -1.6612 O.2       1 <0>        -0.4917
     21 C13        -3.7441    3.1576   -1.7395 C.2       1 <0>        -0.3114
     22 C14        -4.2078    1.8977   -1.3763 C.2       1 <0>         0.4992
     23 N4         -4.3040    0.9199   -2.3344 N.am      1 <0>        -0.6470
     24 H4         -4.6365    0.0108   -2.0835 H         1 <0>         0.4416
     25 C15        -3.9548    1.1743   -3.6078 C.2       1 <0>         0.7181
     26 O3         -4.0489    0.2907   -4.4378 O.2       1 <0>        -0.5361
     27 N5         -3.5035    2.3835   -3.9836 N.am      1 <0>        -0.6642
     28 H5         -3.2469    2.5401   -4.9373 H         1 <0>         0.4394
     29 C16        -3.3925    3.3874   -3.0914 C.2       1 <0>         0.5786
     30 O4         -2.9879    4.4813   -3.4441 O.2       1 <0>        -0.5163
     31 N6         -4.5632    1.6362   -0.0796 N.pl3     1 <0>        -0.8291
     32 Cl1         0.0021   -0.0041    0.0020 Cl        1 <0>        -0.0404
     33 Cl2         2.6823    1.5869   -0.0150 Cl        1 <0>        -0.0403
     34 H6         -0.0435    5.5885    0.0309 H         1 <0>         0.1409
     35 H7          2.0922    4.3699    0.0047 H         1 <0>         0.1492
     36 H8         -2.1545    1.8517    0.0227 H         1 <0>         0.1416
     37 H9         -4.4923    2.3320    0.5925 H         1 <0>         0.4267
     38 H10        -4.8858    0.7552    0.1667 H         1 <0>         0.4110
@<TRIPOS>BOND
     1    1    6 ar
     2    1    2 ar
     3    1   34 1
     4    2    3 ar
     5    2   35 1
     6    3    4 ar
     7    3   33 1
     8    4    5 ar
     9    4   32 1
    10    5    6 ar
    11    5   36 1
    12    6    7 1
    13    7   11 1
    14    7    8 2
    15    8    9 1
    16    8   21 1
    17    9   19 1
    18    9   10 2
    19   10   11 1
    20   10   13 1
    21   11   12 1
    22   13   14 1
    23   13   15 am
    24   15   16 2
    25   15   17 am
    26   17   18 1
    27   17   19 am
    28   19   20 2
    29   21   29 1
    30   21   22 2
    31   22   23 1
    32   22   31 1
    33   23   24 1
    34   23   25 am
    35   25   26 2
    36   25   27 am
    37   27   28 1
    38   27   29 am
    39   29   30 2
    40   31   37 1
    41   31   38 1
@<TRIPOS>MOLECULE
ZINC22756148
   48    51     0     0     0
SMALL
USER_CHARGES
[4-amino-6-[(4-chlorophenyl)amino]-1,3,5-triazin-2-yl]methyl 5-amino-2,4-dimethyl-thieno[4,5-e]pyrimidine-6-carboxylate
@<TRIPOS>ATOM
      1 C1          1.7716    2.6732    0.3318 C.3       1 <0>        -0.1271
      2 C2          0.6639    1.7207   -0.0382 C.ar      1 <0>         0.2610
      3 C3          0.8669    0.3235    0.0428 C.ar      1 <0>        -0.2633
      4 C4          2.0491   -0.4164    0.4517 C.2       1 <0>         0.3441
      5 C5          1.9929   -1.7944    0.4437 C.2       1 <0>        -0.3598
      6 S1          0.3364   -2.1378   -0.1181 S.3       1 <0>         0.1767
      7 C6         -0.2425   -0.4754   -0.3289 C.ar      1 <0>         0.1633
      8 N1         -1.3767    0.0692   -0.7195 N.ar      1 <0>        -0.4915
      9 C7         -1.5003    1.3811   -0.7718 C.ar      1 <0>         0.3718
     10 N2         -0.5021    2.1808   -0.4380 N.ar      1 <0>        -0.5358
     11 C8         -2.8052    1.9813   -1.2278 C.3       1 <0>        -0.0923
     12 C9          3.0072   -2.7153    0.7975 C.2       1 <0>         0.5803
     13 O1          4.0947   -2.3111    1.1653 O.2       1 <0>        -0.5270
     14 O2          2.7687   -4.0420    0.7272 O.3       1 <0>        -0.3378
     15 C10         3.8379   -4.9140    1.0994 C.3       1 <0>         0.1413
     16 C11         3.3903   -6.3461    0.9587 C.ar      1 <0>         0.4340
     17 N3          3.5645   -6.9815   -0.1871 N.ar      1 <0>        -0.6193
     18 C12         3.1710   -8.2465   -0.3151 C.ar      1 <0>         0.6336
     19 N4          2.6022   -8.8705    0.7108 N.ar      1 <0>        -0.6412
     20 C13         2.4288   -8.2285    1.8609 C.ar      1 <0>         0.6312
     21 N5          2.8297   -6.9648    1.9828 N.ar      1 <0>        -0.6175
     22 N6          1.8381   -8.8728    2.9303 N.pl3     1 <0>        -0.6408
     23 C14         1.3116  -10.1587    2.7682 C.ar      1 <0>         0.1735
     24 C15         0.6721  -10.5045    1.5848 C.ar      1 <0>        -0.0998
     25 C16         0.1579  -11.7763    1.4254 C.ar      1 <0>        -0.0900
     26 C17         0.2693  -12.7022    2.4478 C.ar      1 <0>        -0.0515
     27 C18         0.9014  -12.3587    3.6299 C.ar      1 <0>        -0.0889
     28 C19         1.4225  -11.0900    3.7925 C.ar      1 <0>        -0.1326
     29 Cl1        -0.3845  -14.2978    2.2468 Cl        1 <0>        -0.0704
     30 N7          3.3529   -8.9089   -1.5119 N.pl3     1 <0>        -0.8257
     31 N8          3.2034    0.2459    0.8402 N.pl3     1 <0>        -0.8460
     32 H1          2.6599    2.1013    0.6380 H         1 <0>         0.0908
     33 H2          1.4425    3.3128    1.1640 H         1 <0>         0.1071
     34 H3          2.0208    3.3008   -0.5366 H         1 <0>         0.1071
     35 H4         -2.7302    3.0786   -1.2098 H         1 <0>         0.0949
     36 H5         -3.6127    1.6579   -0.5545 H         1 <0>         0.0963
     37 H6         -3.0252    1.6455   -2.2519 H         1 <0>         0.0964
     38 H7          4.7028   -4.7341    0.4440 H         1 <0>         0.1035
     39 H8          4.1227   -4.7198    2.1440 H         1 <0>         0.1036
     40 H9          1.7816   -8.3748    3.9095 H         1 <0>         0.4565
     41 H10         0.5806   -9.7807    0.7885 H         1 <0>         0.1374
     42 H11        -0.3356  -12.0471    0.5037 H         1 <0>         0.1355
     43 H12         0.9877  -13.0834    4.4260 H         1 <0>         0.1375
     44 H13         1.9160  -10.8226    4.7151 H         1 <0>         0.1358
     45 H14         3.0274   -9.9544   -1.6169 H         1 <0>         0.4418
     46 H15         3.8234   -8.3914   -2.3609 H         1 <0>         0.4441
     47 H16         4.0901   -0.3282    1.1470 H         1 <0>         0.4428
     48 H17         3.2326    1.3455    0.8416 H         1 <0>         0.4164
@<TRIPOS>BOND
     1    1    2 1
     2    1   32 1
     3    1   33 1
     4    1   34 1
     5    2   10 ar
     6    2    3 ar
     7    3    7 ar
     8    3    4 1
     9    4    5 2
    10    4   31 1
    11    5    6 1
    12    5   12 1
    13    6    7 1
    14    7    8 ar
    15    8    9 ar
    16    9   10 ar
    17    9   11 1
    18   11   35 1
    19   11   36 1
    20   11   37 1
    21   12   13 2
    22   12   14 1
    23   14   15 1
    24   15   16 1
    25   15   38 1
    26   15   39 1
    27   16   21 ar
    28   16   17 ar
    29   17   18 ar
    30   18   19 ar
    31   18   30 1
    32   19   20 ar
    33   20   21 ar
    34   20   22 1
    35   22   23 1
    36   22   40 1
    37   23   28 ar
    38   23   24 ar
    39   24   25 ar
    40   24   41 1
    41   25   26 ar
    42   25   42 1
    43   26   27 ar
    44   26   29 1
    45   27   28 ar
    46   27   43 1
    47   28   44 1
    48   30   45 1
    49   30   46 1
    50   31   47 1
    51   31   48 1
@<TRIPOS>MOLECULE
ZINC40783576
   49    52     0     0     0
SMALL
USER_CHARGES

@<TRIPOS>ATOM
      1 C1         -0.0184    1.5028    0.0103 C.3       1 <0>        -0.1125
      2 C2          0.0021   -0.0041    0.0020 C.ar      1 <0>        -0.0728
      3 C3          0.0059   -0.6983   -1.1991 C.ar      1 <0>        -0.1054
      4 C4          0.0238   -2.0682   -1.2344 C.ar      1 <0>        -0.0637
      5 C5          0.0391   -2.8216   -0.0379 C.ar      1 <0>         0.1036
      6 C6          0.0352   -2.0811    1.1660 C.ar      1 <0>        -0.1466
      7 C7          0.0229   -0.7090    1.1916 C.ar      1 <0>        -0.0629
      8 S1          0.0581   -3.3611    2.3979 S.3       1 <0>        -0.0135
      9 C8          0.0710   -4.7524    1.2763 C.2       1 <0>         0.3868
     10 N1          0.0576   -4.1652    0.1014 N.2       1 <0>        -0.4995
     11 N2          0.0906   -6.1025    1.5702 N.pl3     1 <0>        -0.5901
     12 C9          0.0979   -7.0387    0.5406 C.ar      1 <0>         0.3793
     13 C10         0.1119   -8.4051    0.8253 C.ar      1 <0>         0.0331
     14 C11         0.1188   -9.3016   -0.2453 C.ar      1 <0>         0.4043
     15 N3          0.1117   -8.8227   -1.4869 N.ar      1 <0>        -0.5669
     16 C12         0.0985   -7.5244   -1.7119 C.ar      1 <0>         0.3277
     17 N4          0.0861   -6.6452   -0.7306 N.ar      1 <0>        -0.5071
     18 N5          0.1332  -10.6724   -0.0178 N.pl3     1 <0>        -0.5102
     19 N6          0.1399  -11.5621   -1.1000 N.am      1 <0>        -0.5069
     20 C13         0.1539  -12.8916   -0.8793 C.2       1 <0>         0.5646
     21 O1          0.1606  -13.3188    0.2590 O.2       1 <0>        -0.5442
     22 C14         0.1610  -13.8289   -2.0195 C.ar      1 <0>        -0.1717
     23 C15         0.1592  -13.3399   -3.3284 C.ar      1 <0>        -0.0427
     24 C16         0.1663  -14.2176   -4.3894 C.ar      1 <0>        -0.1574
     25 C17         0.1754  -15.5884   -4.1597 C.ar      1 <0>         0.1610
     26 C18         0.1768  -16.0789   -2.8591 C.ar      1 <0>        -0.2178
     27 C19         0.1755  -15.2077   -1.7928 C.ar      1 <0>        -0.0104
     28 O2          0.1824  -16.4502   -5.2080 O.3       1 <0>        -0.3109
     29 C20         0.1915  -17.8457   -4.9005 C.3       1 <0>         0.0229
     30 N7          0.1194   -8.8654    2.1515 N.pl3     1 <0>        -0.8735
     31 H1          1.0042    1.8801    0.0026 H         1 <0>         0.0748
     32 H2         -0.5455    1.8639   -0.8728 H         1 <0>         0.0716
     33 H3         -0.5286    1.8543    0.9071 H         1 <0>         0.0691
     34 H4         -0.0059   -0.1466   -2.1275 H         1 <0>         0.1332
     35 H5          0.0260   -2.5780   -2.1866 H         1 <0>         0.1346
     36 H6          0.0248   -0.1831    2.1350 H         1 <0>         0.1313
     37 H7          0.0993   -6.3976    2.4942 H         1 <0>         0.4336
     38 H8          0.0935   -7.1701   -2.7321 H         1 <0>         0.2028
     39 H9          0.1385  -11.0132    0.8903 H         1 <0>         0.4385
     40 H10         0.1346  -11.2212   -2.0081 H         1 <0>         0.4332
     41 H11         0.1518  -12.2749   -3.5077 H         1 <0>         0.1357
     42 H12         0.1645  -13.8404   -5.4014 H         1 <0>         0.1418
     43 H13         0.1831  -17.1447   -2.6848 H         1 <0>         0.1386
     44 H14         0.1815  -15.5895   -0.7825 H         1 <0>         0.1416
     45 H15         1.0825  -18.0839   -4.3196 H         1 <0>         0.0601
     46 H16        -0.6974  -18.0961   -4.3216 H         1 <0>         0.0602
     47 H17         0.1965  -18.4216   -5.8260 H         1 <0>         0.1050
     48 H18         0.1148   -8.2309    2.8852 H         1 <0>         0.3973
     49 H19         0.1291   -9.8180    2.3342 H         1 <0>         0.4005
@<TRIPOS>BOND
     1    1    2 1
     2    1   31 1
     3    1   32 1
     4    1   33 1
     5    2    7 ar
     6    2    3 ar
     7    3    4 ar
     8    3   34 1
     9    4    5 ar
    10    4   35 1
    11    5   10 1
    12    5    6 ar
    13    6    7 ar
    14    6    8 1
    15    7   36 1
    16    8    9 1
    17    9   10 2
    18    9   11 1
    19   11   12 1
    20   11   37 1
    21   12   17 ar
    22   12   13 ar
    23   13   14 ar
    24   13   30 1
    25   14   15 ar
    26   14   18 1
    27   15   16 ar
    28   16   17 ar
    29   16   38 1
    30   18   19 1
    31   18   39 1
    32   19   20 am
    33   19   40 1
    34   20   21 2
    35   20   22 1
    36   22   27 ar
    37   22   23 ar
    38   23   24 ar
    39   23   41 1
    40   24   25 ar
    41   24   42 1
    42   25   26 ar
    43   25   28 1
    44   26   27 ar
    45   26   43 1
    46   27   44 1
    47   28   29 1
    48   29   45 1
    49   29   46 1
    50   29   47 1
    51   30   48 1
    52   30   49 1
@<TRIPOS>MOLECULE
ZINC58294066
   40    42     0     0     0
SMALL
USER_CHARGES

@<TRIPOS>ATOM
      1 C1          0.2512    0.9145   -0.5148 C.ar      1 <0>        -0.0941
      2 C2          1.4850    1.5074   -0.6915 C.ar      1 <0>        -0.0817
      3 C3          2.5885    0.7302   -1.0181 C.ar      1 <0>         0.1426
      4 C4          2.4509   -0.6435   -1.1674 C.ar      1 <0>        -0.1243
      5 C5          1.2172   -1.2367   -0.9908 C.ar      1 <0>        -0.1143
      6 C6          0.1134   -0.4596   -0.6637 C.ar      1 <0>         0.1451
      7 N1         -1.1375   -1.0610   -0.4842 N.am      1 <0>        -0.6649
      8 C7         -2.2595   -0.3984   -0.8286 C.2       1 <0>         0.5783
      9 O1         -2.1822    0.6820   -1.3815 O.2       1 <0>        -0.5080
     10 C8         -3.5803   -0.9833   -0.5351 C.ar      1 <0>        -0.1924
     11 C9         -3.6758   -2.1820    0.1775 C.ar      1 <0>        -0.0238
     12 C10        -4.9149   -2.7235    0.4491 C.ar      1 <0>         0.0482
     13 C11        -6.0685   -2.0839    0.0177 C.ar      1 <0>        -0.0155
     14 C12        -5.9888   -0.9002   -0.6866 C.ar      1 <0>        -0.1056
     15 C13        -4.7495   -0.3370   -0.9643 C.ar      1 <0>         0.3281
     16 N2         -4.6679    0.8583   -1.6692 N.pl3     1 <0>        -0.8243
     17 N3         -7.2255   -0.2266   -1.1425 N.pl3     1 <0>         0.0486
     18 O2         -8.2974   -0.7658   -0.9941 O.2       1 <0>        -0.1488
     19 O3         -7.1638    0.8628   -1.6632 O.3       1 <0>        -0.1653
     20 F1         -5.0061   -3.8822    1.1380 F         1 <0>        -0.1201
     21 N4          3.8421    1.3328   -1.1976 N.pl3     1 <0>        -0.3409
     22 C14         5.0353    0.7880   -0.8699 C.2       1 <0>         0.4314
     23 C15         6.0162    1.7147   -1.2132 C.2       1 <0>        -0.2577
     24 C16         5.3519    2.8369   -1.7607 C.2       1 <0>         0.1398
     25 N5          4.0701    2.5971   -1.7516 N.2       1 <0>        -0.2882
     26 C17         7.4298    1.5607   -1.0440 C.1       1 <0>         0.2937
     27 N6          8.5512    1.4385   -0.9097 N.1       1 <0>        -0.4394
     28 N7          5.2423   -0.4543   -0.3013 N.pl3     1 <0>        -0.8347
     29 H1         -0.6061    1.5184   -0.2565 H         1 <0>         0.1472
     30 H2          1.5922    2.5759   -0.5761 H         1 <0>         0.1446
     31 H3          3.3091   -1.2476   -1.4221 H         1 <0>         0.1365
     32 H4          1.1101   -2.3051   -1.1073 H         1 <0>         0.1410
     33 H5         -1.1970   -1.9548   -0.1118 H         1 <0>         0.4139
     34 H6         -2.7807   -2.6835    0.5146 H         1 <0>         0.1571
     35 H7         -7.0346   -2.5155    0.2342 H         1 <0>         0.1727
     36 H8         -5.3188    1.0595   -2.3598 H         1 <0>         0.4171
     37 H9         -3.9602    1.4911   -1.4705 H         1 <0>         0.4238
     38 H10         5.8250    3.7358   -2.1274 H         1 <0>         0.2022
     39 H11         4.4861   -1.0275   -0.0996 H         1 <0>         0.4091
     40 H12         6.1437   -0.7533   -0.1039 H         1 <0>         0.4231
@<TRIPOS>BOND
     1    1    6 ar
     2    1    2 ar
     3    1   29 1
     4    2    3 ar
     5    2   30 1
     6    3    4 ar
     7    3   21 1
     8    4    5 ar
     9    4   31 1
    10    5    6 ar
    11    5   32 1
    12    6    7 1
    13    7    8 am
    14    7   33 1
    15    8    9 2
    16    8   10 1
    17   10   15 ar
    18   10   11 ar
    19   11   12 ar
    20   11   34 1
    21   12   13 ar
    22   12   20 1
    23   13   14 ar
    24   13   35 1
    25   14   15 ar
    26   14   17 1
    27   15   16 1
    28   16   36 1
    29   16   37 1
    30   17   18 2
    31   17   19 1
    32   21   25 1
    33   21   22 1
    34   22   23 2
    35   22   28 1
    36   23   24 1
    37   23   26 1
    38   24   25 2
    39   24   38 1
    40   26   27 3
    41   28   39 1
    42   28   40 1
@<TRIPOS>MOLECULE
ZINC34903851
   64    66     0     0     0
SMALL
USER_CHARGES

@<TRIPOS>ATOM
      1 C1         -0.4052    0.8936   -0.2592 C.3       1 <0>        -0.0456
      2 N1         -0.3939   -0.5324    0.0933 N.4       1 <0>        -0.3823
      3 C2          0.0623   -1.3185   -1.0608 C.3       1 <0>        -0.0479
      4 C3          0.5172   -0.7500    1.2249 C.3       1 <0>        -0.0089
      5 C4         -0.0036    0.0027    2.4509 C.3       1 <0>        -0.0405
      6 H1         -0.1404    1.0547    2.2004 H         1 <0>         0.1080
      7 C5          0.9915   -0.1204    3.5760 C.ar      1 <0>        -0.1411
      8 C6          1.5526   -1.3495    3.8697 C.ar      1 <0>        -0.0844
      9 C7          2.4646   -1.4651    4.9008 C.ar      1 <0>        -0.1470
     10 C8          2.8177   -0.3466    5.6416 C.ar      1 <0>         0.1612
     11 C9          2.2536    0.8856    5.3447 C.ar      1 <0>        -0.1763
     12 C10         1.3459    0.9969    4.3092 C.ar      1 <0>        -0.0589
     13 O1          3.7143   -0.4578    6.6568 O.3       1 <0>        -0.2928
     14 C11         4.0306    0.7355    7.3766 C.3       1 <0>         0.2141
     15 H2          4.2840    1.5282    6.6727 H         1 <0>         0.0607
     16 C12         5.2225    0.4733    8.3010 C.3       1 <0>         0.1090
     17 H3          6.0961    0.2120    7.7038 H         1 <0>         0.0677
     18 C13         5.5172    1.7385    9.1126 C.3       1 <0>         0.1191
     19 H4          5.8034    2.5458    8.4384 H         1 <0>         0.0781
     20 C14         4.2581    2.1398    9.8871 C.3       1 <0>         0.0641
     21 H5          4.4419    3.0703   10.4243 H         1 <0>         0.0686
     22 C15         3.1035    2.3376    8.9015 C.3       1 <0>        -0.0006
     23 H6          3.3446    3.1515    8.2177 H         1 <0>         0.0567
     24 O2          2.9023    1.1342    8.1576 O.3       1 <0>        -0.3421
     25 C16         1.8465    2.6753    9.6612 C.2       1 <0>         0.5058
     26 O3          1.7759    3.7170   10.2906 O.co2     1 <0>        -0.6818
     27 O4          0.9002    1.9066    9.6463 O.co2     1 <0>        -0.6596
     28 O5          3.9215    1.1094   10.8183 O.3       1 <0>        -0.5243
     29 O6          6.5827    1.4810   10.0294 O.3       1 <0>        -0.5406
     30 O7          4.9112   -0.6028    9.1881 O.3       1 <0>        -0.5062
     31 C17        -1.3425   -0.5962    2.8864 C.3       1 <0>         0.1320
     32 C18        -1.7723    0.0282    4.2154 C.3       1 <0>        -0.1422
     33 C19        -3.1112   -0.5706    4.6508 C.3       1 <0>        -0.1243
     34 C20        -2.9613   -2.0835    4.8230 C.3       1 <0>        -0.1294
     35 C21        -2.5314   -2.7079    3.4940 C.3       1 <0>        -0.1212
     36 C22        -1.1925   -2.1090    3.0585 C.3       1 <0>        -0.1627
     37 O8         -2.3315   -0.3257    1.8910 O.3       1 <0>        -0.5860
     38 H7          0.6010    1.2071   -0.5374 H         1 <0>         0.1160
     39 H8         -1.0812    1.0550   -1.0988 H         1 <0>         0.1191
     40 H9         -0.7437    1.4769    0.5972 H         1 <0>         0.1251
     41 H10         1.0685   -1.0050   -1.3390 H         1 <0>         0.1189
     42 H11         0.0706   -2.3766   -0.7993 H         1 <0>         0.1184
     43 H12        -0.6138   -1.1571   -1.9005 H         1 <0>         0.1210
     44 H13         0.5709   -1.8155    1.4484 H         1 <0>         0.1313
     45 H14         1.5104   -0.3822    0.9675 H         1 <0>         0.1325
     46 H15         1.2774   -2.2200    3.2926 H         1 <0>         0.1273
     47 H16         2.9021   -2.4255    5.1302 H         1 <0>         0.1358
     48 H17         2.5268    1.7579    5.9200 H         1 <0>         0.1369
     49 H18         0.9098    1.9568    4.0748 H         1 <0>         0.1269
     50 H19         3.1322    1.2972   11.3444 H         1 <0>         0.3769
     51 H20         6.8225    2.2409   10.5772 H         1 <0>         0.3802
     52 H21         4.7093   -1.4358    8.7403 H         1 <0>         0.3693
     53 H22        -1.0179   -0.1780    4.9746 H         1 <0>         0.0899
     54 H23        -1.8791    1.1060    4.0927 H         1 <0>         0.0753
     55 H24        -3.4175   -0.1258    5.5976 H         1 <0>         0.0775
     56 H25        -3.8656   -0.3644    3.8916 H         1 <0>         0.0597
     57 H26        -2.2069   -2.2898    5.5822 H         1 <0>         0.0719
     58 H27        -3.9152   -2.5102    5.1332 H         1 <0>         0.0696
     59 H28        -2.4246   -3.7857    3.6166 H         1 <0>         0.0731
     60 H29        -3.2858   -2.5016    2.7347 H         1 <0>         0.0598
     61 H30        -0.8863   -2.5539    2.1117 H         1 <0>         0.0601
     62 H31        -0.4382   -2.3153    3.8178 H         1 <0>         0.0988
     63 H32        -3.2075   -0.6772    2.1013 H         1 <0>         0.3999
     64 H33        -1.3254   -0.8226    0.3508 H         1 <0>         0.4307
@<TRIPOS>BOND
     1    1    2 1
     2    1   38 1
     3    1   39 1
     4    1   40 1
     5    2    3 1
     6    2    4 1
     7    2   64 1
     8    3   41 1
     9    3   42 1
    10    3   43 1
    11    4    5 1
    12    4   44 1
    13    4   45 1
    14    5    6 1
    15    5    7 1
    16    5   31 1
    17    7   12 ar
    18    7    8 ar
    19    8    9 ar
    20    8   46 1
    21    9   10 ar
    22    9   47 1
    23   10   11 ar
    24   10   13 1
    25   11   12 ar
    26   11   48 1
    27   12   49 1
    28   13   14 1
    29   14   15 1
    30   14   24 1
    31   14   16 1
    32   16   17 1
    33   16   18 1
    34   16   30 1
    35   18   19 1
    36   18   20 1
    37   18   29 1
    38   20   21 1
    39   20   22 1
    40   20   28 1
    41   22   23 1
    42   22   24 1
    43   22   25 1
    44   25   26 2
    45   25   27 1
    46   28   50 1
    47   29   51 1
    48   30   52 1
    49   31   36 1
    50   31   32 1
    51   31   37 1
    52   32   33 1
    53   32   53 1
    54   32   54 1
    55   33   34 1
    56   33   55 1
    57   33   56 1
    58   34   35 1
    59   34   57 1
    60   34   58 1
    61   35   36 1
    62   35   59 1
    63   35   60 1
    64   36   61 1
    65   36   62 1
    66   37   63 1
@<TRIPOS>MOLECULE
ZINC13520842
   57    61     0     0     0
SMALL
USER_CHARGES
(2S,3S,4R,5R,6S)-3,4,5-trihydroxy-6-[4-[(1S)-1-(4-hydroxyphenyl)-3-oxo-isobenzofuran-1-yl]phenoxy]tetrahydropyran-2-carboxylic acid
@<TRIPOS>ATOM
      1 C1          3.4981   -2.8819   -6.5561 C.ar      1 <0>        -0.1216
      2 C2          2.1792   -2.4666   -6.4980 C.ar      1 <0>        -0.0710
      3 C3          1.1952   -3.3318   -6.0494 C.ar      1 <0>        -0.1042
      4 C4          1.5286   -4.6081   -5.6600 C.ar      1 <0>        -0.0772
      5 C5          2.8572   -5.0379   -5.7151 C.ar      1 <0>        -0.1901
      6 C6          3.8436   -4.1599   -6.1685 C.ar      1 <0>        -0.0316
      7 C7          2.9059   -6.4330   -5.2412 C.2       1 <0>         0.5272
      8 O1          3.9142   -7.1059   -5.1638 O.2       1 <0>        -0.4490
      9 O2          1.6741   -6.8531   -4.9078 O.3       1 <0>        -0.3039
     10 C8          0.7276   -5.7732   -5.1355 C.3       1 <0>         0.2492
     11 C9         -0.3020   -6.1939   -6.1523 C.ar      1 <0>        -0.0945
     12 C10        -0.8573   -5.2546   -7.0015 C.ar      1 <0>        -0.0903
     13 C11        -1.7972   -5.6386   -7.9382 C.ar      1 <0>        -0.1423
     14 C12        -2.1922   -6.9661   -8.0188 C.ar      1 <0>         0.1124
     15 C13        -1.6378   -7.9056   -7.1618 C.ar      1 <0>        -0.1443
     16 C14        -0.6941   -7.5175   -6.2306 C.ar      1 <0>        -0.0723
     17 O3         -3.1205   -7.3455   -8.9360 O.3       1 <0>        -0.4998
     18 C15         0.0525   -5.3961   -3.8420 C.ar      1 <0>        -0.1363
     19 C16        -0.1661   -6.3567   -2.8719 C.ar      1 <0>        -0.0558
     20 C17        -0.7848   -6.0135   -1.6854 C.ar      1 <0>        -0.1501
     21 C18        -1.1869   -4.7037   -1.4677 C.ar      1 <0>         0.1497
     22 C19        -0.9717   -3.7429   -2.4450 C.ar      1 <0>        -0.1744
     23 C20        -0.3478   -4.0901   -3.6277 C.ar      1 <0>        -0.0664
     24 O4         -1.7958   -4.3636   -0.3012 O.3       1 <0>        -0.3022
     25 C21        -2.1828   -2.9968   -0.1459 C.3       1 <0>         0.2214
     26 H1         -2.8164   -2.7011   -0.9821 H         1 <0>         0.0754
     27 C22        -2.9564   -2.8309    1.1647 C.3       1 <0>         0.0630
     28 H2         -2.3375   -3.1647    1.9976 H         1 <0>         0.0844
     29 C23        -3.3153   -1.3538    1.3533 C.3       1 <0>         0.1245
     30 H3         -3.8173   -1.2200    2.3115 H         1 <0>         0.0795
     31 C24        -2.0306   -0.5200    1.3270 C.3       1 <0>         0.1066
     32 H4         -1.3931   -0.8069    2.1634 H         1 <0>         0.0709
     33 C25        -1.2926   -0.7753    0.0102 C.3       1 <0>         0.0257
     34 H5         -1.9145   -0.4504   -0.8239 H         1 <0>         0.0798
     35 O5         -1.0164   -2.1716   -0.1168 O.3       1 <0>        -0.3617
     36 C26         0.0021   -0.0041    0.0020 C.2       1 <0>         0.4718
     37 O6          1.0565   -0.5939   -0.0112 O.co2     1 <0>        -0.6028
     38 O7         -2.3591    0.8670    1.4292 O.3       1 <0>        -0.5526
     39 O8         -4.1797   -0.9331    0.2960 O.3       1 <0>        -0.5427
     40 O9         -4.1522   -3.6117    1.1154 O.3       1 <0>        -0.5565
     41 H6          4.2605   -2.2021   -6.9069 H         1 <0>         0.1400
     42 H7          1.9164   -1.4645   -6.8031 H         1 <0>         0.1421
     43 H8          0.1670   -3.0044   -6.0049 H         1 <0>         0.1412
     44 H9          4.8739   -4.4802   -6.2153 H         1 <0>         0.1382
     45 H10        -0.5527   -4.2205   -6.9354 H         1 <0>         0.1362
     46 H11        -2.2274   -4.9053   -8.6043 H         1 <0>         0.1334
     47 H12        -1.9434   -8.9397   -7.2228 H         1 <0>         0.1327
     48 H13        -0.2619   -8.2486   -5.5634 H         1 <0>         0.1350
     49 H14        -4.0317   -7.3000   -8.6155 H         1 <0>         0.3922
     50 H15         0.1469   -7.3762   -3.0420 H         1 <0>         0.1342
     51 H16        -0.9556   -6.7642   -0.9280 H         1 <0>         0.1343
     52 H17        -1.2879   -2.7235   -2.2797 H         1 <0>         0.1379
     53 H18        -0.1766   -3.3417   -4.3873 H         1 <0>         0.1311
     54 H19        -1.5916    1.4551    1.4141 H         1 <0>         0.4006
     55 H20        -5.0112   -1.4244    0.2488 H         1 <0>         0.3782
     56 H21        -3.9990   -4.5586    0.9929 H         1 <0>         0.3899
     57 O10        -0.0161    1.3381    0.0094 O.co2     1 <0>        -0.7451
@<TRIPOS>BOND
     1    1    6 ar
     2    1    2 ar
     3    1   41 1
     4    2    3 ar
     5    2   42 1
     6    3    4 ar
     7    3   43 1
     8    4   10 1
     9    4    5 ar
    10    5    6 ar
    11    5    7 1
    12    6   44 1
    13    7    8 2
    14    7    9 1
    15    9   10 1
    16   10   11 1
    17   10   18 1
    18   11   16 ar
    19   11   12 ar
    20   12   13 ar
    21   12   45 1
    22   13   14 ar
    23   13   46 1
    24   14   15 ar
    25   14   17 1
    26   15   16 ar
    27   15   47 1
    28   16   48 1
    29   17   49 1
    30   18   23 ar
    31   18   19 ar
    32   19   20 ar
    33   19   50 1
    34   20   21 ar
    35   20   51 1
    36   21   22 ar
    37   21   24 1
    38   22   23 ar
    39   22   52 1
    40   23   53 1
    41   24   25 1
    42   25   26 1
    43   25   35 1
    44   25   27 1
    45   27   28 1
    46   27   29 1
    47   27   40 1
    48   29   30 1
    49   29   31 1
    50   29   39 1
    51   31   32 1
    52   31   33 1
    53   31   38 1
    54   33   34 1
    55   33   35 1
    56   33   36 1
    57   36   37 2
    58   36   57 1
    59   38   54 1
    60   39   55 1
    61   40   56 1
@<TRIPOS>MOLECULE
ZINC22060869
   53    55     0     0     0
SMALL
USER_CHARGES
(2R,3R,4S,5R,6S)-3,4,5-trihydroxy-6-[2-[[3-(hydroxymethyl)-2-methyl-phenyl]amino]benzoyl]oxy-tetrahydropyran-2-carboxylic acid
@<TRIPOS>ATOM
      1 C1          2.3720   -0.1037    0.1945 C.3       1 <0>        -0.1054
      2 C2          1.9073    0.7455    1.3495 C.ar      1 <0>        -0.1538
      3 C3          2.6497    0.7959    2.5132 C.ar      1 <0>        -0.0540
      4 C4          2.2209    1.5699    3.5757 C.ar      1 <0>        -0.1347
      5 C5          1.0508    2.3006    3.4752 C.ar      1 <0>        -0.0654
      6 C6          0.3068    2.2592    2.3128 C.ar      1 <0>        -0.1814
      7 C7          0.7348    1.4825    1.2432 C.ar      1 <0>         0.2380
      8 N1         -0.0157    1.4383    0.0654 N.pl3     1 <0>        -0.7065
      9 C8         -1.2367    2.0964   -0.0052 C.ar      1 <0>         0.2208
     10 C9         -2.4232    1.3807    0.1001 C.ar      1 <0>        -0.1391
     11 C10        -3.6346    2.0373    0.0345 C.ar      1 <0>        -0.0817
     12 C11        -3.6800    3.4110   -0.1469 C.ar      1 <0>        -0.1390
     13 C12        -2.5151    4.1373   -0.2586 C.ar      1 <0>        -0.0529
     14 C13        -1.2791    3.4879   -0.1890 C.ar      1 <0>        -0.1280
     15 C14        -0.0293    4.2584   -0.3072 C.2       1 <0>         0.4995
     16 O1          1.0381    3.6801   -0.3621 O.2       1 <0>        -0.4640
     17 O2         -0.0696    5.6047   -0.3544 O.3       1 <0>        -0.3499
     18 C15         1.2006    6.2984   -0.4712 C.3       1 <0>         0.2632
     19 H1          1.7565    5.8646   -1.3155 H         1 <0>         0.1120
     20 C16         0.9492    7.7997   -0.6347 C.3       1 <0>         0.1189
     21 H2          0.3706    8.0138   -1.5454 H         1 <0>         0.0759
     22 C17         0.2430    8.3305    0.6167 C.3       1 <0>         0.0998
     23 H3          0.0332    9.4073    0.5368 H         1 <0>         0.0563
     24 C18         1.1007    8.0152    1.8460 C.3       1 <0>         0.0890
     25 H4          2.0467    8.5763    1.8320 H         1 <0>         0.0553
     26 C19         1.3462    6.5056    1.9137 C.3       1 <0>         0.0291
     27 H5          0.4043    5.9423    1.9880 H         1 <0>         0.0669
     28 O3          1.9773    6.0721    0.7068 O.3       1 <0>        -0.3349
     29 C20         2.2383    6.1936    3.0875 C.2       1 <0>         0.4765
     30 O4          3.3420    5.7378    2.9032 O.co2     1 <0>        -0.6023
     31 O5          1.8068    6.4222    4.3378 O.co2     1 <0>        -0.7553
     32 O6          0.4178    8.4413    3.0267 O.3       1 <0>        -0.6089
     33 O7         -1.0335    7.7016    0.7482 O.3       1 <0>        -0.5746
     34 O8          2.1961    8.4771   -0.8029 O.3       1 <0>        -0.5703
     35 C21         3.9250    0.0012    2.6274 C.3       1 <0>         0.1325
     36 O9          4.5031    0.2109    3.9173 O.3       1 <0>        -0.5911
     37 H6          3.3114   -0.6080    0.4649 H         1 <0>         0.0624
     38 H7          2.5385    0.5343   -0.6860 H         1 <0>         0.0643
     39 H8          1.6052   -0.8572   -0.0384 H         1 <0>         0.0588
     40 H9          2.8012    1.6044    4.4859 H         1 <0>         0.1250
     41 H10         0.7189    2.9044    4.3069 H         1 <0>         0.1197
     42 H11        -0.6066    2.8302    2.2349 H         1 <0>         0.1073
     43 H12         0.3605    0.8823   -0.8060 H         1 <0>         0.4262
     44 H13        -2.3969    0.3098    0.2374 H         1 <0>         0.1319
     45 H14        -4.5539    1.4770    0.1209 H         1 <0>         0.1285
     46 H15        -4.6340    3.9143   -0.2013 H         1 <0>         0.1300
     47 H16        -2.5565    5.2072   -0.3995 H         1 <0>         0.1435
     48 H17         0.8823    8.2965    4.0133 H         1 <0>         0.4311
     49 H18        -1.6888    7.9586    1.5935 H         1 <0>         0.4109
     50 H19         2.2154    9.5689   -0.9358 H         1 <0>         0.4140
     51 H20         3.7039   -1.0681    2.4941 H         1 <0>         0.0494
     52 H21         4.6320    0.3289    1.8511 H         1 <0>         0.0530
     53 H22         5.4444   -0.2907    4.1863 H         1 <0>         0.4037
@<TRIPOS>BOND
     1    1    2 1
     2    1   37 1
     3    1   38 1
     4    1   39 1
     5    2    7 ar
     6    2    3 ar
     7    3    4 ar
     8    3   35 1
     9    4    5 ar
    10    4   40 1
    11    5    6 ar
    12    5   41 1
    13    6    7 ar
    14    6   42 1
    15    7    8 1
    16    8    9 1
    17    8   43 1
    18    9   14 ar
    19    9   10 ar
    20   10   11 ar
    21   10   44 1
    22   11   12 ar
    23   11   45 1
    24   12   13 ar
    25   12   46 1
    26   13   14 ar
    27   13   47 1
    28   14   15 1
    29   15   16 2
    30   15   17 1
    31   17   18 1
    32   18   19 1
    33   18   28 1
    34   18   20 1
    35   20   21 1
    36   20   22 1
    37   20   34 1
    38   22   23 1
    39   22   24 1
    40   22   33 1
    41   24   25 1
    42   24   26 1
    43   24   32 1
    44   26   27 1
    45   26   28 1
    46   26   29 1
    47   29   30 2
    48   29   31 1
    49   32   48 1
    50   33   49 1
    51   34   50 1
    52   35   36 1
    53   35   51 1
    54   35   52 1
    55   36   53 1
@<TRIPOS>MOLECULE
ZINC39691670
   59    62     0     0     0
SMALL
USER_CHARGES

@<TRIPOS>ATOM
      1 C1         -0.0184    1.5028    0.0103 C.3       1 <0>        -0.1078
      2 C2          0.0021   -0.0041    0.0020 C.ar      1 <0>        -0.1296
      3 C3          0.0057   -0.6874   -1.2004 C.ar      1 <0>        -0.0744
      4 C4          0.0244   -2.0681   -1.2116 C.ar      1 <0>        -0.1709
      5 C5          0.0396   -2.7708   -0.0132 C.ar      1 <0>         0.2029
      6 C6          0.0359   -2.0814    1.1925 C.ar      1 <0>        -0.1449
      7 C7          0.0229   -0.7002    1.1965 C.ar      1 <0>        -0.0791
      8 C8          0.0518   -2.8394    2.4949 C.3       1 <0>        -0.1065
      9 N1          0.0581   -4.1674   -0.0209 N.pl3     1 <0>        -0.7168
     10 C9          0.0614   -4.8929   -1.2936 C.3       1 <0>         0.3901
     11 H1          0.7618   -4.4473   -2.0001 H         1 <0>         0.1403
     12 N2          0.3414   -6.3494   -1.0917 N.3       1 <0>        -0.4891
     13 N3         -0.1491   -7.1140   -2.2323 N.3       1 <0>        -0.4857
     14 C10        -1.5558   -6.7610   -2.5715 C.3       1 <0>         0.1009
     15 H2         -2.2597   -7.3828   -2.0183 H         1 <0>         0.1194
     16 S1         -1.6361   -5.0070   -2.0087 S.3       1 <0>        -0.3366
     17 S2         -1.8463   -6.8858   -4.3577 S.3       1 <0>        -0.0655
     18 C11        -0.6734   -5.7035   -5.0767 C.3       1 <0>        -0.1237
     19 C12        -0.8121   -5.7078   -6.5773 C.2       1 <0>         0.5284
     20 O1         -1.6223   -6.4367   -7.1094 O.2       1 <0>        -0.5350
     21 N4         -0.0356   -4.9016   -7.3281 N.am      1 <0>        -0.6808
     22 C13        -0.1704   -4.9057   -8.7869 C.3       1 <0>         0.0875
     23 H3         -1.2151   -5.0642   -9.0548 H         1 <0>         0.0815
     24 C14         0.3013   -3.5622   -9.3465 C.3       1 <0>        -0.0415
     25 C15        -0.6154   -2.4675   -8.8645 C.2       1 <0>        -0.1502
     26 C16        -0.5211   -1.7496   -7.5911 C.ar      1 <0>        -0.0929
     27 C17         0.3489   -1.8168   -6.5015 C.ar      1 <0>        -0.0690
     28 C18         0.1634   -0.9853   -5.4329 C.ar      1 <0>        -0.1485
     29 C19        -0.8836   -0.0743   -5.4220 C.ar      1 <0>        -0.1011
     30 C20        -1.7540    0.0088   -6.4869 C.ar      1 <0>        -0.1325
     31 C21        -1.5838   -0.8275   -7.5850 C.ar      1 <0>         0.0952
     32 N5         -2.2643   -0.9844   -8.7717 N.pl3     1 <0>        -0.5977
     33 C22        -1.6698   -1.9612   -9.5232 C.2       1 <0>         0.0443
     34 C23         0.6704   -6.0142   -9.3660 C.2       1 <0>         0.4919
     35 O2          0.3314   -6.5585  -10.4029 O.co2     1 <0>        -0.6936
     36 O3          1.6897   -6.3667   -8.7974 O.co2     1 <0>        -0.6892
     37 H4          1.0042    1.8801    0.0026 H         1 <0>         0.0652
     38 H5         -0.5455    1.8639   -0.8728 H         1 <0>         0.0637
     39 H6         -0.5286    1.8543    0.9071 H         1 <0>         0.0608
     40 H7         -0.0065   -0.1406   -2.1317 H         1 <0>         0.1245
     41 H8          0.0269   -2.6011   -2.1509 H         1 <0>         0.1244
     42 H9          0.0244   -0.1634    2.1336 H         1 <0>         0.1207
     43 H10         1.0832   -3.0085    2.8043 H         1 <0>         0.0675
     44 H11        -0.4663   -2.2598    3.2590 H         1 <0>         0.0677
     45 H12        -0.4499   -3.7980    2.3635 H         1 <0>         0.0563
     46 H13         0.0687   -4.6569    0.8164 H         1 <0>         0.4040
     47 H14        -0.0685   -6.6805   -0.2312 H         1 <0>         0.3252
     48 H15        -0.0540   -8.1055   -2.0709 H         1 <0>         0.3710
     49 H16        -0.8846   -4.7045   -4.6952 H         1 <0>         0.1146
     50 H17         0.3429   -5.9889   -4.8050 H         1 <0>         0.1156
     51 H18         0.6124   -4.3186   -6.9026 H         1 <0>         0.3900
     52 H19         1.3168   -3.3625   -9.0045 H         1 <0>         0.0730
     53 H20         0.2850   -3.5964  -10.4359 H         1 <0>         0.0852
     54 H21         1.1654   -2.5237   -6.5027 H         1 <0>         0.1178
     55 H22         0.8368   -1.0376   -4.5902 H         1 <0>         0.1182
     56 H23        -1.0176    0.5758   -4.5700 H         1 <0>         0.1189
     57 H24        -2.5659    0.7208   -6.4687 H         1 <0>         0.1138
     58 H25        -2.0015   -2.2798  -10.5004 H         1 <0>         0.1697
     59 H26        -3.0462   -0.4754   -9.0372 H         1 <0>         0.4120
@<TRIPOS>BOND
     1    1    2 1
     2    1   37 1
     3    1   38 1
     4    1   39 1
     5    2    7 ar
     6    2    3 ar
     7    3    4 ar
     8    3   40 1
     9    4    5 ar
    10    4   41 1
    11    5    6 ar
    12    5    9 1
    13    6    7 ar
    14    6    8 1
    15    7   42 1
    16    8   43 1
    17    8   44 1
    18    8   45 1
    19    9   10 1
    20    9   46 1
    21   10   11 1
    22   10   16 1
    23   10   12 1
    24   12   13 1
    25   12   47 1
    26   13   14 1
    27   13   48 1
    28   14   15 1
    29   14   16 1
    30   14   17 1
    31   17   18 1
    32   18   19 1
    33   18   49 1
    34   18   50 1
    35   19   20 2
    36   19   21 am
    37   21   22 1
    38   21   51 1
    39   22   23 1
    40   22   24 1
    41   22   34 1
    42   24   52 1
    43   24   53 1
    44   24   25 1
    45   25   26 1
    46   25   33 2
    47   26   27 ar
    48   26   31 ar
    49   27   28 ar
    50   27   54 1
    51   28   29 ar
    52   28   55 1
    53   29   30 ar
    54   29   56 1
    55   30   31 ar
    56   30   57 1
    57   31   32 1
    58   32   59 1
    59   32   33 1
    60   33   58 1
    61   34   35 2
    62   34   36 1
@<TRIPOS>MOLECULE
ZINC44699541
   61    64     0     0     0
SMALL
USER_CHARGES

@<TRIPOS>ATOM
      1 C1          0.0123    1.6225    0.2391 C.3       1 <0>        -0.1474
      2 C2          0.0127    0.0933    0.1887 C.3       1 <0>        -0.0827
      3 C3          0.6671   -0.3671   -1.0883 C.ar      1 <0>        -0.0912
      4 C4         -0.1029   -0.6537   -2.1942 C.ar      1 <0>        -0.1010
      5 C5          0.4883   -1.0785   -3.3759 C.ar      1 <0>        -0.1436
      6 C6          1.8444   -1.2198   -3.4623 C.ar      1 <0>        -0.0729
      7 C7          2.6460   -0.9354   -2.3546 C.ar      1 <0>        -0.0912
      8 C8          2.0496   -0.4980   -1.1546 C.ar      1 <0>         0.1059
      9 N1          3.0646   -0.2870   -0.2452 N.pl3     1 <0>        -0.5750
     10 H1          2.9405    0.0159    0.6679 H         1 <0>         0.4125
     11 C9          4.2683   -0.5675   -0.8202 C.2       1 <0>         0.0568
     12 C10         4.0781   -0.9726   -2.0936 C.2       1 <0>        -0.1543
     13 C11         5.2034   -1.3595   -3.0190 C.3       1 <0>        -0.0786
     14 C12         6.5153   -0.8597   -2.3957 C.3       1 <0>         0.0488
     15 O1          6.5549   -1.2241   -1.0133 O.3       1 <0>        -0.3319
     16 C13         5.6396   -0.4778   -0.1906 C.3       1 <0>         0.2000
     17 C14         5.6078   -1.0984    1.2075 C.3       1 <0>        -0.1233
     18 C15         5.0803   -2.5318    1.1174 C.3       1 <0>        -0.1449
     19 C16         6.0702    0.9874   -0.0968 C.3       1 <0>        -0.1337
     20 C17         7.4744    1.0645    0.4447 C.2       1 <0>         0.4634
     21 O2          8.0428    0.0577    0.7957 O.2       1 <0>        -0.4562
     22 O3          8.0939    2.2518    0.5370 O.3       1 <0>        -0.3458
     23 C18         9.4240    2.2507    1.0593 C.3       1 <0>         0.2272
     24 H2          9.4478    1.6869    1.9919 H         1 <0>         0.0724
     25 C19         9.8705    3.6913    1.3220 C.3       1 <0>         0.0624
     26 H3          9.8080    4.2663    0.3981 H         1 <0>         0.0861
     27 C20        11.3175    3.6855    1.8245 C.3       1 <0>         0.1261
     28 H4         11.3716    3.1528    2.7740 H         1 <0>         0.0710
     29 C21        12.2025    2.9819    0.7910 C.3       1 <0>         0.1066
     30 H5         12.1871    3.5426   -0.1436 H         1 <0>         0.0664
     31 C22        11.6659    1.5687    0.5488 C.3       1 <0>         0.0019
     32 H6         11.7193    0.9960    1.4746 H         1 <0>         0.0676
     33 O4         10.3070    1.6445    0.1132 O.3       1 <0>        -0.3470
     34 C23        12.4962    0.8906   -0.5103 C.2       1 <0>         0.5102
     35 O5         13.6712    0.6436   -0.2983 O.co2     1 <0>        -0.6792
     36 O6         11.9930    0.5889   -1.5790 O.co2     1 <0>        -0.6576
     37 O7         13.5426    2.9077    1.2814 O.3       1 <0>        -0.5542
     38 O8         11.7664    5.0302    2.0046 O.3       1 <0>        -0.5430
     39 O9          9.0230    4.2813    2.3098 O.3       1 <0>        -0.5573
     40 H7          1.0389    1.9874    0.2049 H         1 <0>         0.0516
     41 H8         -0.5411    2.0140   -0.6144 H         1 <0>         0.0586
     42 H9         -0.4611    1.9555    1.1628 H         1 <0>         0.0575
     43 H10         0.5661   -0.2982    1.0423 H         1 <0>         0.0629
     44 H11        -1.0139   -0.2715    0.2229 H         1 <0>         0.0746
     45 H12        -1.1763   -0.5472   -2.1411 H         1 <0>         0.1225
     46 H13        -0.1288   -1.2995   -4.2341 H         1 <0>         0.1209
     47 H14         2.2958   -1.5512   -4.3858 H         1 <0>         0.1204
     48 H15         5.2357   -2.4436   -3.1279 H         1 <0>         0.0811
     49 H16         5.0566   -0.8939   -3.9935 H         1 <0>         0.0824
     50 H17         7.3599   -1.3123   -2.9152 H         1 <0>         0.1081
     51 H18         6.5711    0.2250   -2.4874 H         1 <0>         0.0551
     52 H19         6.6151   -1.1075    1.6240 H         1 <0>         0.1058
     53 H20         4.9537   -0.5104    1.8513 H         1 <0>         0.0652
     54 H21         5.7795   -3.1409    0.5445 H         1 <0>         0.0673
     55 H22         4.9765   -2.9445    2.1208 H         1 <0>         0.0532
     56 H23         4.1091   -2.5311    0.6225 H         1 <0>         0.0503
     57 H24         6.0376    1.4398   -1.0879 H         1 <0>         0.1128
     58 H25         5.3939    1.5229    0.5695 H         1 <0>         0.1125
     59 H26        14.1593    2.4730    0.6765 H         1 <0>         0.3985
     60 H27        11.2454    5.5366    2.6427 H         1 <0>         0.3785
     61 H28         8.0897    4.3136    2.0588 H         1 <0>         0.3871
@<TRIPOS>BOND
     1    1    2 1
     2    1   40 1
     3    1   41 1
     4    1   42 1
     5    2    3 1
     6    2   43 1
     7    2   44 1
     8    3    8 ar
     9    3    4 ar
    10    4    5 ar
    11    4   45 1
    12    5    6 ar
    13    5   46 1
    14    6    7 ar
    15    6   47 1
    16    7   12 1
    17    7    8 ar
    18    8    9 1
    19    9   10 1
    20    9   11 1
    21   11   16 1
    22   11   12 2
    23   12   13 1
    24   13   14 1
    25   13   48 1
    26   13   49 1
    27   14   15 1
    28   14   50 1
    29   14   51 1
    30   15   16 1
    31   16   17 1
    32   16   19 1
    33   17   18 1
    34   17   52 1
    35   17   53 1
    36   18   54 1
    37   18   55 1
    38   18   56 1
    39   19   20 1
    40   19   57 1
    41   19   58 1
    42   20   21 2
    43   20   22 1
    44   22   23 1
    45   23   24 1
    46   23   33 1
    47   23   25 1
    48   25   26 1
    49   25   27 1
    50   25   39 1
    51   27   28 1
    52   27   29 1
    53   27   38 1
    54   29   30 1
    55   29   31 1
    56   29   37 1
    57   31   32 1
    58   31   33 1
    59   31   34 1
    60   34   35 2
    61   34   36 1
    62   37   59 1
    63   38   60 1
    64   39   61 1
@<TRIPOS>MOLECULE
ZINC65733978
   53    55     0     0     0
SMALL
USER_CHARGES

@<TRIPOS>ATOM
      1 C1         -0.0184    1.5028    0.0103 C.3       1 <0>        -0.1732
      2 C2          0.0021   -0.0041    0.0020 C.2       1 <0>         0.5148
      3 O1          1.0605   -0.5961   -0.0113 O.2       1 <0>        -0.5333
      4 N1         -1.1558   -0.6938    0.0094 N.am      1 <0>        -0.7128
      5 C3         -1.1360   -2.1586    0.0013 C.3       1 <0>         0.1376
      6 H1         -0.2840   -2.5145    0.5806 H         1 <0>         0.1005
      7 C4         -1.0201   -2.6610   -1.4411 C.3       1 <0>         0.0926
      8 H2         -0.9554   -3.7491   -1.4441 H         1 <0>         0.0648
      9 C5         -2.2596   -2.2193   -2.2251 C.3       1 <0>        -0.1421
     10 C6         -3.5131   -2.7496   -1.5241 C.3       1 <0>         0.2118
     11 O2         -3.5434   -2.2701   -0.1782 O.3       1 <0>        -0.3409
     12 C7         -2.4321   -2.6912    0.6178 C.3       1 <0>         0.0558
     13 H3         -2.3993   -3.7803    0.6485 H         1 <0>         0.0762
     14 C8         -2.5834   -2.1448    2.0389 C.3       1 <0>         0.0930
     15 H4         -2.6167   -1.0558    2.0078 H         1 <0>         0.1087
     16 C9         -3.8788   -2.6772    2.6548 C.3       1 <0>         0.0887
     17 H5         -3.8455   -3.7663    2.6859 H         1 <0>         0.0998
     18 C10        -4.0301   -2.1308    4.0758 C.3       1 <0>         0.0473
     19 O3         -5.1774   -2.7185    4.6925 O.3       1 <0>        -0.5635
     20 O4         -4.9910   -2.2571    1.8620 O.3       1 <0>        -0.5199
     21 O5         -1.4712   -2.5649    2.8317 O.3       1 <0>        -0.5442
     22 C11        -4.7396   -2.2695   -2.2564 C.2       1 <0>         0.5016
     23 O6         -5.5667   -3.0729   -2.6522 O.co2     1 <0>        -0.6523
     24 O7         -4.9047   -1.0776   -2.4529 O.co2     1 <0>        -0.6678
     25 O8         -3.4886   -4.1783   -1.5205 O.3       1 <0>        -0.3088
     26 C12        -4.5395   -4.8134   -0.9305 C.2       1 <0>         0.0500
     27 C13        -5.6050   -4.2302   -0.3537 C.2       1 <0>         0.0527
     28 N2         -6.4570   -5.1936    0.1320 N.pl3     1 <0>        -0.5810
     29 H6         -7.2940   -5.0181    0.5896 H         1 <0>         0.4152
     30 C14        -5.9445   -6.4450   -0.1289 C.ar      1 <0>         0.1166
     31 C15        -4.7266   -6.2631   -0.8094 C.ar      1 <0>        -0.0978
     32 C16        -3.9794   -7.3725   -1.2094 C.ar      1 <0>        -0.0252
     33 C17        -4.4428   -8.6403   -0.9371 C.ar      1 <0>        -0.1304
     34 C18        -5.6470   -8.8191   -0.2682 C.ar      1 <0>        -0.0818
     35 C19        -6.3918   -7.7345    0.1395 C.ar      1 <0>        -0.1274
     36 Br1        -3.4347  -10.1462   -1.4774 Br        1 <0>        -0.0725
     37 O9          0.1517   -2.1108   -2.0463 O.3       1 <0>        -0.5454
     38 H7          1.0042    1.8801    0.0026 H         1 <0>         0.0866
     39 H8         -0.5455    1.8639   -0.8728 H         1 <0>         0.0859
     40 H9         -0.5286    1.8543    0.9071 H         1 <0>         0.0818
     41 H10        -2.0023   -0.2203    0.0200 H         1 <0>         0.4021
     42 H11        -2.2971   -1.1306   -2.2641 H         1 <0>         0.1001
     43 H12        -2.2118   -2.6195   -3.2378 H         1 <0>         0.0756
     44 H13        -3.1403   -2.3757    4.6559 H         1 <0>         0.0581
     45 H14        -4.1525   -1.0484    4.0378 H         1 <0>         0.0465
     46 H15        -5.3351   -2.4172    5.5977 H         1 <0>         0.3750
     47 H16        -5.0826   -1.2971    1.7903 H         1 <0>         0.3721
     48 H17        -1.3796   -3.5249    2.9033 H         1 <0>         0.3776
     49 H18        -5.7668   -3.1648   -0.2821 H         1 <0>         0.1813
     50 H19        -3.0429   -7.2371   -1.7300 H         1 <0>         0.1274
     51 H20        -6.0000   -9.8185   -0.0608 H         1 <0>         0.1275
     52 H21        -7.3273   -7.8853    0.6576 H         1 <0>         0.1244
     53 H22         0.2879   -2.3876   -2.9627 H         1 <0>         0.3705
@<TRIPOS>BOND
     1    1    2 1
     2    1   38 1
     3    1   39 1
     4    1   40 1
     5    2    3 2
     6    2    4 am
     7    4    5 1
     8    4   41 1
     9    5    6 1
    10    5   12 1
    11    5    7 1
    12    7    8 1
    13    7    9 1
    14    7   37 1
    15    9   10 1
    16    9   42 1
    17    9   43 1
    18   10   11 1
    19   10   22 1
    20   10   25 1
    21   11   12 1
    22   12   13 1
    23   12   14 1
    24   14   15 1
    25   14   16 1
    26   14   21 1
    27   16   17 1
    28   16   18 1
    29   16   20 1
    30   18   19 1
    31   18   44 1
    32   18   45 1
    33   19   46 1
    34   20   47 1
    35   21   48 1
    36   22   23 2
    37   22   24 1
    38   25   26 1
    39   26   31 1
    40   26   27 2
    41   27   28 1
    42   27   49 1
    43   28   29 1
    44   28   30 1
    45   30   35 ar
    46   30   31 ar
    47   31   32 ar
    48   32   33 ar
    49   32   50 1
    50   33   34 ar
    51   33   36 1
    52   34   35 ar
    53   34   51 1
    54   35   52 1
    55   37   53 1
@<TRIPOS>MOLECULE
ZINC22064328
   37    38     0     0     0
SMALL
USER_CHARGES
1-[4-[[(E)-3-(5-chloro-2-thienyl)-3-oxo-prop-1-enyl]amino]phenyl]sulfonylguanidine
@<TRIPOS>ATOM
      1 C1         -2.3904   -0.3602    0.0057 C.ar      1 <0>        -0.1882
      2 C2         -3.5787   -1.0638    0.0143 C.ar      1 <0>        -0.0025
      3 C3         -4.7847   -0.3871    0.0232 C.ar      1 <0>        -0.7168
      4 C4         -4.8053    0.9957    0.0303 C.ar      1 <0>         0.0263
      5 C5         -3.6207    1.7055    0.0285 C.ar      1 <0>        -0.1793
      6 C6         -2.4074    1.0289    0.0191 C.ar      1 <0>         0.2179
      7 N1         -1.2069    1.7439    0.0173 N.pl3     1 <0>        -0.6572
      8 C7         -0.0126    1.0758    0.0080 C.2       1 <0>         0.2188
      9 C8          1.1469    1.7664    0.0006 C.2       1 <0>        -0.3558
     10 C9          2.3831    1.0750   -0.0149 C.2       1 <0>         0.4856
     11 O1          2.3996   -0.1446   -0.0216 O.2       1 <0>        -0.4772
     12 C10         3.6437    1.8259   -0.0229 C.2       1 <0>        -0.2385
     13 C11         4.9450    1.3481   -0.0322 C.2       1 <0>        -0.0759
     14 C12         5.9531    2.2796   -0.0415 C.2       1 <0>        -0.1606
     15 C13         5.6343    3.6022   -0.0311 C.2       1 <0>        -0.1383
     16 S1          3.9008    3.5913   -0.0153 S.3       1 <0>         0.2013
     17 Cl1         6.7041    4.9694   -0.0323 Cl        1 <0>         0.0245
     18 S2         -6.2986   -1.2887    0.0261 S.o2      1 <0>         2.6340
     19 O2         -6.0075   -2.5692    0.5690 O.2       1 <0>        -1.0137
     20 O3         -7.2820   -0.4294    0.5862 O.2       1 <0>        -0.9489
     21 N2         -6.7270   -1.5312   -1.5550 N.2       1 <0>        -1.0389
     22 C14        -5.9405   -2.3123   -2.3683 C.2       1 <0>         0.7326
     23 N3         -4.8576   -2.8618   -1.8950 N.pl3     1 <0>        -0.8676
     24 N4         -6.2962   -2.5136   -3.6810 N.pl3     1 <0>        -0.8459
     25 H1         -1.4490   -0.8893   -0.0062 H         1 <0>         0.1386
     26 H2         -3.5662   -2.1437    0.0094 H         1 <0>         0.1352
     27 H3         -5.7489    1.5210    0.0376 H         1 <0>         0.1484
     28 H4         -3.6375    2.7853    0.0348 H         1 <0>         0.1393
     29 H5         -1.2218    2.8438    0.0234 H         1 <0>         0.4442
     30 H6          0.0023   -0.0241    0.0066 H         1 <0>         0.1666
     31 H7          1.1320    2.8663    0.0066 H         1 <0>         0.1304
     32 H8          5.1564    0.2890   -0.0351 H         1 <0>         0.1539
     33 H9          6.9867    1.9664   -0.0524 H         1 <0>         0.1476
     34 H10        -4.2283   -3.4868   -2.5458 H         1 <0>         0.4333
     35 H11        -5.6669   -3.1386   -4.3317 H         1 <0>         0.4320
     36 H12        -7.2101   -2.0497   -4.0806 H         1 <0>         0.4551
     37 H13        -4.5729   -2.7006   -0.8448 H         1 <0>         0.4398
@<TRIPOS>BOND
     1    1    6 ar
     2    1    2 ar
     3    1   25 1
     4    2    3 ar
     5    2   26 1
     6    3    4 ar
     7    3   18 1
     8    4    5 ar
     9    4   27 1
    10    5    6 ar
    11    5   28 1
    12    6    7 1
    13    7    8 1
    14    7   29 1
    15    8    9 2
    16    8   30 1
    17    9   10 1
    18    9   31 1
    19   10   11 2
    20   10   12 1
    21   12   16 1
    22   12   13 2
    23   13   14 1
    24   13   32 1
    25   14   15 2
    26   14   33 1
    27   15   16 1
    28   15   17 1
    29   18   19 2
    30   18   20 2
    31   18   21 1
    32   21   22 2
    33   22   23 1
    34   22   24 1
    35   23   34 1
    36   23   37 1
    37   24   35 1
    38   24   36 1
@<TRIPOS>MOLECULE
ZINC39015652
   61    64     0     0     0
SMALL
USER_CHARGES

@<TRIPOS>ATOM
      1 C1         -1.9245   -0.6324    1.3808 C.3       1 <0>        -0.1115
      2 C2         -0.6686   -0.9421    0.6077 C.ar      1 <0>        -0.0650
      3 C3         -0.7402   -1.6665   -0.5662 C.ar      1 <0>        -0.1180
      4 C4          0.4116   -1.9511   -1.2761 C.ar      1 <0>        -0.1086
      5 C5          1.6387   -1.5114   -0.8139 C.ar      1 <0>        -0.1143
      6 C6          1.7171   -0.7864    0.3588 C.ar      1 <0>        -0.0711
      7 C7          0.5613   -0.4948    1.0717 C.ar      1 <0>         0.1308
      8 N1          0.6367    0.2442    2.2576 N.am      1 <0>        -0.6753
      9 C8          0.0876    1.4734    2.3216 C.2       1 <0>         0.5372
     10 O1         -0.5255    1.9139    1.3724 O.2       1 <0>        -0.4944
     11 C9          0.2356    2.3004    3.5727 C.3       1 <0>        -0.1555
     12 S1         -0.6064    3.8915    3.3489 S.3       1 <0>        -0.0663
     13 C10        -0.4689    4.6927    4.9705 C.3       1 <0>         0.1866
     14 H1         -0.6562    3.9732    5.7675 H         1 <0>         0.0922
     15 N2          0.8729    5.3114    5.1329 N.3       1 <0>        -0.4677
     16 N3          0.6376    6.3546    6.1434 N.3       1 <0>        -0.4891
     17 C11        -0.7016    6.8934    5.8140 C.3       1 <0>         0.2608
     18 H2         -0.6037    7.7852    5.1950 H         1 <0>         0.1249
     19 N4         -1.4117    5.8311    5.0678 N.3       1 <0>        -0.3344
     20 N5         -1.8050    6.2963    3.7475 N.3       1 <0>        -0.6826
     21 C12        -1.4626    7.2282    7.0984 C.3       1 <0>        -0.0434
     22 H3         -2.4923    7.5058    6.8729 H         1 <0>         0.1648
     23 C13        -0.7631    8.3385    7.8622 C.2       1 <0>        -0.1215
     24 C14        -0.4342    7.7651    9.0359 C.2       1 <0>         0.0035
     25 N6         -0.8461    6.4704    9.0631 N.2       1 <0>        -0.1508
     26 N7         -1.4235    6.0941    8.0365 N.2       1 <0>        -0.1513
     27 C15         0.2777    8.4503   10.1426 C.ar      1 <0>        -0.0420
     28 C16         0.6514    9.7866   10.0118 C.ar      1 <0>        -0.0706
     29 C17         1.3129   10.4200   11.0437 C.ar      1 <0>        -0.1522
     30 C18         1.6060    9.7295   12.2086 C.ar      1 <0>         0.1110
     31 C19         1.2368    8.4008   12.3428 C.ar      1 <0>        -0.1535
     32 C20         0.5695    7.7613   11.3184 C.ar      1 <0>        -0.0587
     33 F1          2.2543   10.3535   13.2164 F         1 <0>        -0.1350
     34 C21         3.0546   -0.3081    0.8619 C.3       1 <0>        -0.0564
     35 C22         3.9662   -1.5115    1.1104 C.3       1 <0>        -0.1446
     36 C23         3.6941    0.6091   -0.1825 C.3       1 <0>        -0.1439
     37 H4         -2.3992    0.2551    0.9624 H         1 <0>         0.0793
     38 H5         -2.6102   -1.4771    1.3135 H         1 <0>         0.0664
     39 H6         -1.6726   -0.4513    2.4258 H         1 <0>         0.0580
     40 H7         -1.6970   -2.0113   -0.9298 H         1 <0>         0.1259
     41 H8          0.3530   -2.5182   -2.1934 H         1 <0>         0.1254
     42 H9          2.5367   -1.7356   -1.3705 H         1 <0>         0.1257
     43 H10         1.0840   -0.1282    3.0335 H         1 <0>         0.4079
     44 H11        -0.2091    1.7692    4.4142 H         1 <0>         0.1106
     45 H12         1.2934    2.4739    3.7706 H         1 <0>         0.1145
     46 H13         1.5456    4.6349    5.4615 H         1 <0>         0.3443
     47 H14         0.6520    5.9660    7.0745 H         1 <0>         0.3178
     48 H15        -2.3546    5.5994    3.2675 H         1 <0>         0.3677
     49 H16        -2.3027    7.1720    3.8061 H         1 <0>         0.3566
     50 H17        -0.5734    9.3516    7.5397 H         1 <0>         0.1802
     51 H18         0.4239   10.3253    9.1038 H         1 <0>         0.1357
     52 H19         1.6028   11.4555   10.9431 H         1 <0>         0.1422
     53 H20         1.4676    7.8663   13.2524 H         1 <0>         0.1419
     54 H21         0.2781    6.7269   11.4256 H         1 <0>         0.1440
     55 H22         2.9171    0.2419    1.7929 H         1 <0>         0.0746
     56 H23         4.1037   -2.0614    0.1794 H         1 <0>         0.0590
     57 H24         4.9336   -1.1655    1.4743 H         1 <0>         0.0597
     58 H25         3.5106   -2.1649    1.8544 H         1 <0>         0.0550
     59 H26         3.8317    0.0592   -1.1135 H         1 <0>         0.0583
     60 H27         3.0447    1.4665   -0.3594 H         1 <0>         0.0564
     61 H28         4.6616    0.9551    0.1815 H         1 <0>         0.0594
@<TRIPOS>BOND
     1    1    2 1
     2    1   37 1
     3    1   38 1
     4    1   39 1
     5    2    7 ar
     6    2    3 ar
     7    3    4 ar
     8    3   40 1
     9    4    5 ar
    10    4   41 1
    11    5    6 ar
    12    5   42 1
    13    6    7 ar
    14    6   34 1
    15    7    8 1
    16    8    9 am
    17    8   43 1
    18    9   10 2
    19    9   11 1
    20   11   12 1
    21   11   44 1
    22   11   45 1
    23   12   13 1
    24   13   14 1
    25   13   19 1
    26   13   15 1
    27   15   16 1
    28   15   46 1
    29   16   17 1
    30   16   47 1
    31   17   18 1
    32   17   19 1
    33   17   21 1
    34   19   20 1
    35   20   48 1
    36   20   49 1
    37   21   22 1
    38   21   26 1
    39   21   23 1
    40   23   24 2
    41   23   50 1
    42   24   25 1
    43   24   27 1
    44   25   26 2
    45   27   32 ar
    46   27   28 ar
    47   28   29 ar
    48   28   51 1
    49   29   30 ar
    50   29   52 1
    51   30   31 ar
    52   30   33 1
    53   31   32 ar
    54   31   53 1
    55   32   54 1
    56   34   35 1
    57   34   36 1
    58   34   55 1
    59   35   56 1
    60   35   57 1
    61   35   58 1
    62   36   59 1
    63   36   60 1
    64   36   61 1
@<TRIPOS>MOLECULE
ZINC40783562
   45    48     0     0     0
SMALL
USER_CHARGES

@<TRIPOS>ATOM
      1 C1         -0.0184    1.5028    0.0103 C.3       1 <0>        -0.1126
      2 C2          0.0021   -0.0041    0.0020 C.ar      1 <0>        -0.0727
      3 C3          0.0059   -0.6983   -1.1991 C.ar      1 <0>        -0.1054
      4 C4          0.0238   -2.0682   -1.2344 C.ar      1 <0>        -0.0637
      5 C5          0.0391   -2.8216   -0.0379 C.ar      1 <0>         0.1034
      6 C6          0.0352   -2.0811    1.1660 C.ar      1 <0>        -0.1465
      7 C7          0.0229   -0.7090    1.1916 C.ar      1 <0>        -0.0629
      8 S1          0.0581   -3.3611    2.3979 S.3       1 <0>        -0.0130
      9 C8          0.0710   -4.7524    1.2763 C.2       1 <0>         0.3865
     10 N1          0.0576   -4.1652    0.1014 N.2       1 <0>        -0.4995
     11 N2          0.0906   -6.1025    1.5702 N.pl3     1 <0>        -0.5901
     12 C9          0.0979   -7.0387    0.5406 C.ar      1 <0>         0.3796
     13 C10         0.1119   -8.4051    0.8253 C.ar      1 <0>         0.0336
     14 C11         0.1188   -9.3016   -0.2453 C.ar      1 <0>         0.4039
     15 N3          0.1117   -8.8227   -1.4869 N.ar      1 <0>        -0.5671
     16 C12         0.0985   -7.5244   -1.7119 C.ar      1 <0>         0.3276
     17 N4          0.0861   -6.6452   -0.7306 N.ar      1 <0>        -0.5067
     18 N5          0.1332  -10.6724   -0.0178 N.pl3     1 <0>        -0.5104
     19 N6          0.1399  -11.5621   -1.1000 N.am      1 <0>        -0.5053
     20 C13         0.1539  -12.8916   -0.8793 C.2       1 <0>         0.5595
     21 O1          0.1606  -13.3187    0.2587 O.2       1 <0>        -0.5403
     22 C14         0.1610  -13.8305   -2.0213 C.ar      1 <0>        -0.1301
     23 C15         0.1592  -13.3432   -3.3293 C.ar      1 <0>        -0.0851
     24 C16         0.1664  -14.2247   -4.3905 C.ar      1 <0>        -0.1246
     25 C17         0.1749  -15.5890   -4.1604 C.ar      1 <0>        -0.0884
     26 C18         0.1763  -16.0786   -2.8664 C.ar      1 <0>        -0.1262
     27 C19         0.1755  -15.2079   -1.7962 C.ar      1 <0>        -0.0549
     28 N7          0.1194   -8.8654    2.1515 N.pl3     1 <0>        -0.8734
     29 H1          1.0042    1.8801    0.0026 H         1 <0>         0.0748
     30 H2         -0.5455    1.8639   -0.8728 H         1 <0>         0.0716
     31 H3         -0.5286    1.8543    0.9071 H         1 <0>         0.0692
     32 H4         -0.0059   -0.1466   -2.1275 H         1 <0>         0.1333
     33 H5          0.0260   -2.5780   -2.1866 H         1 <0>         0.1346
     34 H6          0.0248   -0.1831    2.1350 H         1 <0>         0.1313
     35 H7          0.0993   -6.3976    2.4942 H         1 <0>         0.4336
     36 H8          0.0935   -7.1701   -2.7321 H         1 <0>         0.2029
     37 H9          0.1385  -11.0132    0.8903 H         1 <0>         0.4386
     38 H10         0.1346  -11.2212   -2.0081 H         1 <0>         0.4338
     39 H11         0.1518  -12.2785   -3.5102 H         1 <0>         0.1282
     40 H12         0.1649  -13.8490   -5.4030 H         1 <0>         0.1329
     41 H13         0.1801  -16.2749   -4.9947 H         1 <0>         0.1305
     42 H14         0.1827  -17.1447   -2.6936 H         1 <0>         0.1333
     43 H15         0.1815  -15.5912   -0.7866 H         1 <0>         0.1382
     44 H16         0.1148   -8.2309    2.8852 H         1 <0>         0.3975
     45 H17         0.1291   -9.8180    2.3342 H         1 <0>         0.4006
@<TRIPOS>BOND
     1    1    2 1
     2    1   29 1
     3    1   30 1
     4    1   31 1
     5    2    7 ar
     6    2    3 ar
     7    3    4 ar
     8    3   32 1
     9    4    5 ar
    10    4   33 1
    11    5   10 1
    12    5    6 ar
    13    6    7 ar
    14    6    8 1
    15    7   34 1
    16    8    9 1
    17    9   10 2
    18    9   11 1
    19   11   12 1
    20   11   35 1
    21   12   17 ar
    22   12   13 ar
    23   13   14 ar
    24   13   28 1
    25   14   15 ar
    26   14   18 1
    27   15   16 ar
    28   16   17 ar
    29   16   36 1
    30   18   19 1
    31   18   37 1
    32   19   20 am
    33   19   38 1
    34   20   21 2
    35   20   22 1
    36   22   27 ar
    37   22   23 ar
    38   23   24 ar
    39   23   39 1
    40   24   25 ar
    41   24   40 1
    42   25   26 ar
    43   25   41 1
    44   26   27 ar
    45   26   42 1
    46   27   43 1
    47   28   44 1
    48   28   45 1
@<TRIPOS>MOLECULE
ZINC59385012
   45    47     0     0     0
SMALL
USER_CHARGES

@<TRIPOS>ATOM
      1 C1         -0.4003    1.5836   -0.3037 C.3       1 <0>        -0.1210
      2 C2         -0.2285    0.0940   -0.1533 C.2       1 <0>         0.2329
      3 C3         -1.3190   -0.7016   -0.1344 C.2       1 <0>        -0.2853
      4 C4         -1.1013   -2.1934    0.0181 C.3       1 <0>         0.2185
      5 H1         -1.5490   -2.6882   -0.8437 H         1 <0>         0.1038
      6 N1          0.2920   -2.6559    0.1340 N.pl3     1 <0>        -0.6433
      7 C5          1.2778   -1.7376    0.0980 C.2       1 <0>         0.5564
      8 S1          2.9024   -2.2609    0.2316 S.2       1 <0>        -0.5832
      9 N2          1.0282   -0.4297   -0.0440 N.pl3     1 <0>        -0.5982
     10 C6         -1.8447   -2.6481    1.2476 C.ar      1 <0>        -0.1708
     11 C7         -2.2355   -1.7250    2.1990 C.ar      1 <0>        -0.0589
     12 C8         -2.9171   -2.1388    3.3272 C.ar      1 <0>        -0.1492
     13 C9         -3.2111   -3.4831    3.5077 C.ar      1 <0>         0.1435
     14 C10        -2.8202   -4.4109    2.5550 C.ar      1 <0>        -0.1711
     15 C11        -2.1411   -3.9925    1.4208 C.ar      1 <0>         0.1400
     16 O1         -1.7619   -4.8989    0.4821 O.3       1 <0>        -0.4926
     17 O2         -3.8812   -3.8896    4.6179 O.3       1 <0>        -0.4942
     18 C12        -2.6222   -0.1604   -0.2525 C.2       1 <0>         0.6076
     19 O3         -2.7813    1.0470   -0.2653 O.2       1 <0>        -0.5006
     20 N3         -3.6866   -0.9813   -0.3508 N.am      1 <0>        -0.5777
     21 N4         -4.9636   -0.4493   -0.5717 N.2       1 <0>        -0.2163
     22 C13        -5.9885   -1.2398   -0.6664 C.2       1 <0>         0.1082
     23 C14        -7.3328   -0.6797   -0.8988 C.ar      1 <0>        -0.0423
     24 C15        -7.5058    0.7011   -1.0234 C.ar      1 <0>        -0.0744
     25 C16        -8.7655    1.2186   -1.2412 C.ar      1 <0>        -0.1097
     26 C17        -9.8574    0.3740   -1.3361 C.ar      1 <0>        -0.0937
     27 C18        -9.6942   -0.9955   -1.2132 C.ar      1 <0>        -0.0394
     28 C19        -8.4378   -1.5275   -1.0012 C.ar      1 <0>        -0.0830
     29 Cl1       -11.0709   -2.0463   -1.3333 Cl        1 <0>        -0.0633
     30 H2          0.5781    2.0640   -0.3034 H         1 <0>         0.0737
     31 H3         -0.9098    1.7975   -1.2432 H         1 <0>         0.1092
     32 H4         -0.9933    1.9666    0.5268 H         1 <0>         0.1133
     33 H5          0.4954   -3.5990    0.2341 H         1 <0>         0.4421
     34 H6          1.7819    0.1804   -0.0664 H         1 <0>         0.4448
     35 H7         -2.0073   -0.6785    2.0604 H         1 <0>         0.1336
     36 H8         -3.2212   -1.4155    4.0694 H         1 <0>         0.1377
     37 H9         -3.0480   -5.4575    2.6937 H         1 <0>         0.1429
     38 H10        -0.8842   -5.2763    0.6317 H         1 <0>         0.3954
     39 H11        -4.8429   -3.8961    4.5165 H         1 <0>         0.3988
     40 H12        -3.5684   -1.9406   -0.2687 H         1 <0>         0.3867
     41 H13        -5.8569   -2.3078   -0.5749 H         1 <0>         0.1222
     42 H14        -6.6548    1.3619   -0.9490 H         1 <0>         0.1426
     43 H15        -8.9001    2.2858   -1.3377 H         1 <0>         0.1383
     44 H16       -10.8416    0.7848   -1.5064 H         1 <0>         0.1371
     45 H17        -8.3106   -2.5961   -0.9100 H         1 <0>         0.1390
@<TRIPOS>BOND
     1    1    2 1
     2    1   30 1
     3    1   31 1
     4    1   32 1
     5    2    9 1
     6    2    3 2
     7    3    4 1
     8    3   18 1
     9    4    5 1
    10    4    6 1
    11    4   10 1
    12    6    7 1
    13    6   33 1
    14    7    8 2
    15    7    9 1
    16    9   34 1
    17   10   15 ar
    18   10   11 ar
    19   11   12 ar
    20   11   35 1
    21   12   13 ar
    22   12   36 1
    23   13   14 ar
    24   13   17 1
    25   14   15 ar
    26   14   37 1
    27   15   16 1
    28   16   38 1
    29   17   39 1
    30   18   19 2
    31   18   20 am
    32   20   21 1
    33   20   40 1
    34   21   22 2
    35   22   23 1
    36   22   41 1
    37   23   28 ar
    38   23   24 ar
    39   24   25 ar
    40   24   42 1
    41   25   26 ar
    42   25   43 1
    43   26   27 ar
    44   26   44 1
    45   27   28 ar
    46   27   29 1
    47   28   45 1
@<TRIPOS>MOLECULE
ZINC25880768
   50    52     0     0     0
SMALL
USER_CHARGES

@<TRIPOS>ATOM
      1 C1         -0.0808    1.5056    0.0237 C.3       1 <0>        -0.1192
      2 C2         -0.0598   -0.0012    0.0184 C.ar      1 <0>        -0.0742
      3 C3         -0.0700   -0.6884   -1.1810 C.ar      1 <0>        -0.1190
      4 C4         -0.0507   -2.0706   -1.1858 C.ar      1 <0>        -0.0914
      5 C5         -0.0207   -2.7656    0.0088 C.ar      1 <0>        -0.1055
      6 C6         -0.0096   -2.0784    1.2081 C.ar      1 <0>        -0.1029
      7 C7         -0.0246   -0.6962    1.2129 C.ar      1 <0>        -0.1157
      8 C8         -0.0007   -4.2725    0.0035 C.3       1 <0>         0.1719
      9 C9          0.8276   -4.7989    1.1587 C.2       1 <0>         0.5434
     10 O1          0.6234   -4.6319    2.3421 O.2       1 <0>        -0.4547
     11 N1          1.8377   -5.4918    0.5968 N.am      1 <0>        -0.5609
     12 C10         1.7636   -5.4765   -0.7389 C.2       1 <0>         0.7118
     13 O2          2.5628   -6.0325   -1.4664 O.2       1 <0>        -0.5346
     14 N2          0.7052   -4.7773   -1.1869 N.am      1 <0>        -0.7145
     15 C11         2.8878   -6.1764    1.3550 C.3       1 <0>         0.1012
     16 C12         2.4563   -7.5906    1.6463 C.2       1 <0>         0.5015
     17 O3          1.3776   -7.9876    1.2587 O.2       1 <0>        -0.5059
     18 N3          3.2688   -8.4143    2.3374 N.am      1 <0>        -0.6666
     19 C13         2.8294   -9.6964    2.6921 C.ar      1 <0>         0.1256
     20 C14         3.2190  -10.2538    3.9028 C.ar      1 <0>        -0.1212
     21 C15         2.7860  -11.5172    4.2522 C.ar      1 <0>        -0.1276
     22 C16         1.9611  -12.2308    3.3928 C.ar      1 <0>         0.1488
     23 C17         1.5718  -11.6737    2.1819 C.ar      1 <0>        -0.1003
     24 C18         1.9995  -10.4076    1.8354 C.ar      1 <0>        -0.0982
     25 N4          1.5220  -13.5133    3.7473 N.am      1 <0>        -0.6850
     26 C19         1.3683  -14.4589    2.7993 C.2       1 <0>         0.7046
     27 O4          1.5293  -14.1769    1.6276 O.2       1 <0>        -0.5743
     28 N5          1.0361  -15.7171    3.1502 N.am      1 <0>        -0.8614
     29 C20        -1.4250   -4.8284    0.0608 C.3       1 <0>        -0.1444
     30 H1          0.9415    1.8833    0.0031 H         1 <0>         0.0734
     31 H2         -0.6185    1.8645   -0.8539 H         1 <0>         0.0689
     32 H3         -0.5805    1.8589    0.9257 H         1 <0>         0.0691
     33 H4         -0.0934   -0.1454   -2.1143 H         1 <0>         0.1274
     34 H5         -0.0594   -2.6075   -2.1229 H         1 <0>         0.1227
     35 H6          0.0134   -2.6214    2.1414 H         1 <0>         0.1396
     36 H7         -0.0121   -0.1592    2.1499 H         1 <0>         0.1277
     37 H8          0.4553   -4.6338   -2.1131 H         1 <0>         0.4413
     38 H9          3.8077   -6.1903    0.7704 H         1 <0>         0.1337
     39 H10         3.0614   -5.6490    2.2930 H         1 <0>         0.1316
     40 H11         4.1579   -8.1195    2.5893 H         1 <0>         0.4135
     41 H12         3.8612   -9.6990    4.5709 H         1 <0>         0.1316
     42 H13         3.0891  -11.9507    5.1938 H         1 <0>         0.1306
     43 H14         0.9306  -12.2288    1.5134 H         1 <0>         0.1445
     44 H15         1.6928   -9.9723    0.8958 H         1 <0>         0.1412
     45 H16         1.3287  -13.7205    4.6749 H         1 <0>         0.4076
     46 H17         0.9077  -15.9420    4.0849 H         1 <0>         0.3991
     47 H18         0.9255  -16.3976    2.4679 H         1 <0>         0.4196
     48 H19        -1.9865   -4.4790   -0.8057 H         1 <0>         0.0832
     49 H20        -1.3903   -5.9178    0.0562 H         1 <0>         0.0763
     50 H21        -1.9129   -4.4843    0.9728 H         1 <0>         0.0864
@<TRIPOS>BOND
     1    1    2 1
     2    1   30 1
     3    1   31 1
     4    1   32 1
     5    2    7 ar
     6    2    3 ar
     7    3    4 ar
     8    3   33 1
     9    4    5 ar
    10    4   34 1
    11    5    6 ar
    12    5    8 1
    13    6    7 ar
    14    6   35 1
    15    7   36 1
    16    8   14 1
    17    8    9 1
    18    8   29 1
    19    9   10 2
    20    9   11 am
    21   11   12 am
    22   11   15 1
    23   12   13 2
    24   12   14 am
    25   14   37 1
    26   15   16 1
    27   15   38 1
    28   15   39 1
    29   16   17 2
    30   16   18 am
    31   18   19 1
    32   18   40 1
    33   19   24 ar
    34   19   20 ar
    35   20   21 ar
    36   20   41 1
    37   21   22 ar
    38   21   42 1
    39   22   23 ar
    40   22   25 1
    41   23   24 ar
    42   23   43 1
    43   24   44 1
    44   25   26 am
    45   25   45 1
    46   26   27 2
    47   26   28 am
    48   28   46 1
    49   28   47 1
    50   29   48 1
    51   29   49 1
    52   29   50 1
@<TRIPOS>MOLECULE
ZINC19897488
   43    46     0     0     0
SMALL
USER_CHARGES
3-(5-amino-1-phenyl-pyrazol-4-yl)-5-[(4-fluorophenyl)methylsulfanyl]-1,2,4-triazol-4-amine
@<TRIPOS>ATOM
      1 C1          1.3649  -14.3274   -1.7341 C.ar      1 <0>        -0.1225
      2 C2          0.6621  -13.8503   -2.8252 C.ar      1 <0>        -0.0941
      3 C3          0.6409  -12.4962   -3.0965 C.ar      1 <0>        -0.1104
      4 C4          1.3260  -11.6137   -2.2720 C.ar      1 <0>         0.1597
      5 C5          2.0351  -12.0964   -1.1802 C.ar      1 <0>        -0.1494
      6 C6          2.0477  -13.4510   -0.9108 C.ar      1 <0>        -0.0912
      7 N1          1.3064  -10.2393   -2.5445 N.pl3     1 <0>        -0.3509
      8 C7          1.3080   -9.2427   -1.6192 C.2       1 <0>         0.4425
      9 C8          1.2809   -8.0426   -2.3133 C.2       1 <0>        -0.2647
     10 C9          1.2729   -8.3556   -3.6886 C.2       1 <0>         0.1082
     11 N2          1.2880   -9.6550   -3.8161 N.2       1 <0>        -0.2887
     12 C10         1.2691   -6.6885   -1.7224 C.2       1 <0>         0.2824
     13 N3          1.2770   -6.3949   -0.4425 N.2       1 <0>        -0.3016
     14 N4          1.2679   -5.1198   -0.2840 N.2       1 <0>        -0.2746
     15 C11         1.2440   -4.5198   -1.4503 C.2       1 <0>         0.1246
     16 N5          1.2477   -5.4969   -2.4089 N.pl3     1 <0>        -0.2180
     17 N6          1.2336   -5.3246   -3.7639 N.3       1 <0>        -0.7641
     18 S1          1.2193   -2.7804   -1.7306 S.3       1 <0>         0.0000
     19 C12         1.2273   -2.1863   -0.0209 C.3       1 <0>        -0.0574
     20 C13         1.2082   -0.6795   -0.0127 C.ar      1 <0>        -0.0951
     21 C14         0.0021   -0.0041    0.0020 C.ar      1 <0>        -0.0684
     22 C15        -0.0167    1.3778    0.0096 C.ar      1 <0>        -0.1535
     23 C16         1.1732    2.0858    0.0021 C.ar      1 <0>         0.1085
     24 C17         2.3806    1.4083   -0.0131 C.ar      1 <0>        -0.1535
     25 C18         2.3969    0.0264   -0.0202 C.ar      1 <0>        -0.0684
     26 F1          1.1561    3.4366    0.0090 F         1 <0>        -0.1366
     27 N7          1.3291   -9.3976   -0.2407 N.pl3     1 <0>        -0.8545
     28 H1          1.3802  -15.3868   -1.5242 H         1 <0>         0.1316
     29 H2          0.1294  -14.5373   -3.4661 H         1 <0>         0.1345
     30 H3          0.0918  -12.1242   -3.9488 H         1 <0>         0.1357
     31 H4          2.5729  -11.4129   -0.5398 H         1 <0>         0.1320
     32 H5          2.5955  -13.8266   -0.0592 H         1 <0>         0.1355
     33 H6          1.2572   -7.6416   -4.4987 H         1 <0>         0.1806
     34 H7          1.2168   -4.3103   -4.1892 H         1 <0>         0.4455
     35 H8          1.2391   -6.2002   -4.4298 H         1 <0>         0.4388
     36 H9          0.3387   -2.5672    0.5038 H         1 <0>         0.1105
     37 H10         2.1347   -2.5443    0.4875 H         1 <0>         0.1106
     38 H11        -0.9259   -0.5565    0.0079 H         1 <0>         0.1379
     39 H12        -0.9591    1.9052    0.0169 H         1 <0>         0.1398
     40 H13         3.3093    1.9595   -0.0194 H         1 <0>         0.1398
     41 H14         3.3385   -0.5023   -0.0313 H         1 <0>         0.1379
     42 H15         1.3282   -8.5124    0.4123 H         1 <0>         0.4585
     43 H16         1.3468  -10.4056    0.1993 H         1 <0>         0.4225
@<TRIPOS>BOND
     1    1    6 ar
     2    1    2 ar
     3    1   28 1
     4    2    3 ar
     5    2   29 1
     6    3    4 ar
     7    3   30 1
     8    4    5 ar
     9    4    7 1
    10    5    6 ar
    11    5   31 1
    12    6   32 1
    13    7   11 1
    14    7    8 1
    15    8    9 2
    16    8   27 1
    17    9   10 1
    18    9   12 1
    19   10   11 2
    20   10   33 1
    21   12   16 1
    22   12   13 2
    23   13   14 1
    24   14   15 2
    25   15   16 1
    26   15   18 1
    27   16   17 1
    28   17   34 1
    29   17   35 1
    30   18   19 1
    31   19   20 1
    32   19   36 1
    33   19   37 1
    34   20   25 ar
    35   20   21 ar
    36   21   22 ar
    37   21   38 1
    38   22   23 ar
    39   22   39 1
    40   23   24 ar
    41   23   26 1
    42   24   25 ar
    43   24   40 1
    44   25   41 1
    45   27   42 1
    46   27   43 1
@<TRIPOS>MOLECULE
ZINC04176600
   47    50     0     0     0
SMALL
USER_CHARGES

@<TRIPOS>ATOM
      1 C1          0.4580    1.3627   -0.0000 C.3       1 <0>        -0.1160
      2 C2          0.2657   -0.1318    0.0255 C.2       1 <0>         0.2621
      3 C3         -1.0049   -0.6372    0.0056 C.2       1 <0>        -0.3234
      4 C4         -1.1510   -2.1486    0.0321 C.3       1 <0>         0.2612
      5 H1         -1.7048   -2.4519   -0.8564 H         1 <0>         0.0978
      6 N1          0.0982   -2.9171    0.0767 N.pl3     1 <0>        -0.3722
      7 C5          1.2956   -2.2406    0.0915 C.cat     1 <0>         0.4769
      8 N2          1.3315   -0.9154    0.0611 N.pl3     1 <0>        -0.5716
      9 N3          2.2733   -3.1556    0.1327 N.2       1 <0>        -0.5354
     10 C6          1.7619   -4.3738    0.1447 C.2       1 <0>         0.2122
     11 N4          0.3971   -4.2817    0.1108 N.2       1 <0>        -0.2623
     12 S1          2.6867   -5.8727    0.1962 S.3       1 <0>         0.0370
     13 C7          4.4147   -5.3215    0.2267 C.3       1 <0>        -0.0658
     14 C8          5.3242   -6.5222    0.2720 C.ar      1 <0>        -0.0828
     15 C9          5.7082   -7.0529    1.4893 C.ar      1 <0>        -0.0981
     16 C10         6.5426   -8.1543    1.5308 C.ar      1 <0>        -0.1198
     17 C11         6.9926   -8.7252    0.3550 C.ar      1 <0>        -0.1098
     18 C12         6.6078   -8.1951   -0.8623 C.ar      1 <0>        -0.1198
     19 C13         5.7700   -7.0963   -0.9039 C.ar      1 <0>        -0.0981
     20 C14        -1.9697   -2.5202    1.2416 C.ar      1 <0>        -0.1151
     21 C15        -1.4358   -2.3720    2.5084 C.ar      1 <0>        -0.0705
     22 C16        -2.1840   -2.7123    3.6186 C.ar      1 <0>        -0.1385
     23 C17        -3.4723   -3.2026    3.4618 C.ar      1 <0>         0.1187
     24 C18        -4.0059   -3.3499    2.1896 C.ar      1 <0>        -0.1361
     25 C19        -3.2554   -3.0033    1.0828 C.ar      1 <0>        -0.0936
     26 O1         -4.2103   -3.5385    4.5524 O.3       1 <0>        -0.4972
     27 C20        -2.1283    0.2067   -0.0371 C.2       1 <0>         0.6004
     28 O2         -1.9878    1.4137    0.0581 O.2       1 <0>        -0.5514
     29 N5         -3.3607   -0.3189   -0.1833 N.am      1 <0>        -0.8576
     30 H2          1.5235    1.5922    0.0157 H         1 <0>         0.0691
     31 H3          0.0117    1.7710   -0.9068 H         1 <0>         0.1087
     32 H4         -0.0221    1.8057    0.8725 H         1 <0>         0.1137
     33 H5          4.6261   -4.7391   -0.6700 H         1 <0>         0.1030
     34 H6          4.5836   -4.7043    1.1091 H         1 <0>         0.1027
     35 H7          5.3567   -6.6069    2.4079 H         1 <0>         0.1262
     36 H8          6.8432   -8.5685    2.4818 H         1 <0>         0.1261
     37 H9          7.6450   -9.5853    0.3874 H         1 <0>         0.1247
     38 H10         6.9597   -8.6409   -1.7809 H         1 <0>         0.1261
     39 H11         5.4664   -6.6844   -1.8549 H         1 <0>         0.1263
     40 H12        -0.4329   -1.9903    2.6299 H         1 <0>         0.1145
     41 H13        -1.7663   -2.5971    4.6079 H         1 <0>         0.1318
     42 H14        -5.0085   -3.7314    2.0649 H         1 <0>         0.1362
     43 H15        -3.6719   -3.1136    0.0925 H         1 <0>         0.1316
     44 H16        -4.7418   -2.8124    4.9064 H         1 <0>         0.3942
     45 H17        -3.4798   -1.2815   -0.1894 H         1 <0>         0.3959
     46 H18        -4.1285    0.2655   -0.2823 H         1 <0>         0.4044
     47 H19         2.2027   -0.4890    0.0696 H         1 <0>         0.4336
@<TRIPOS>BOND
     1    1    2 1
     2    1   30 1
     3    1   31 1
     4    1   32 1
     5    2    8 1
     6    2    3 2
     7    3    4 1
     8    3   27 1
     9    4    5 1
    10    4    6 1
    11    4   20 1
    12    6   11 1
    13    6    7 1
    14    7    8 2
    15    7    9 1
    16    8   47 1
    17    9   10 2
    18   10   11 1
    19   10   12 1
    20   12   13 1
    21   13   14 1
    22   13   33 1
    23   13   34 1
    24   14   19 ar
    25   14   15 ar
    26   15   16 ar
    27   15   35 1
    28   16   17 ar
    29   16   36 1
    30   17   18 ar
    31   17   37 1
    32   18   19 ar
    33   18   38 1
    34   19   39 1
    35   20   25 ar
    36   20   21 ar
    37   21   22 ar
    38   21   40 1
    39   22   23 ar
    40   22   41 1
    41   23   24 ar
    42   23   26 1
    43   24   25 ar
    44   24   42 1
    45   25   43 1
    46   26   44 1
    47   27   28 2
    48   27   29 am
    49   29   45 1
    50   29   46 1
@<TRIPOS>MOLECULE
ZINC40756606
   48    50     0     0     0
SMALL
USER_CHARGES

@<TRIPOS>ATOM
      1 C1          1.0751   -0.4583   -0.7596 C.ar      1 <0>        -0.1051
      2 C2          2.2591    0.2525   -0.7724 C.ar      1 <0>        -0.0877
      3 C3          2.3769    1.4165   -0.0332 C.ar      1 <0>        -0.0579
      4 C4          1.3093    1.8716    0.7205 C.ar      1 <0>        -0.0873
      5 C5          0.1228    1.1651    0.7366 C.ar      1 <0>        -0.1461
      6 C6          0.0017   -0.0036   -0.0043 C.ar      1 <0>         0.1750
      7 N1         -1.1983   -0.7208    0.0101 N.pl3     1 <0>        -0.6561
      8 C7         -1.1813   -2.1065   -0.1025 C.ar      1 <0>         0.3853
      9 C8         -2.3745   -2.8240   -0.2060 C.ar      1 <0>         0.0049
     10 C9         -2.3005   -4.2136   -0.3172 C.ar      1 <0>         0.4080
     11 N2         -1.1043   -4.7973   -0.3203 N.ar      1 <0>        -0.5662
     12 C10        -0.0018   -4.0827   -0.2204 C.ar      1 <0>         0.3246
     13 N3         -0.0271   -2.7692   -0.1187 N.ar      1 <0>        -0.5612
     14 N4         -3.4578   -4.9758   -0.4227 N.pl3     1 <0>        -0.7168
     15 C11        -3.3670   -6.4333   -0.5388 C.3       1 <0>         0.1376
     16 C12        -4.7741   -7.0256   -0.6396 C.3       1 <0>        -0.1300
     17 C13        -4.6793   -8.5478   -0.7609 C.3       1 <0>         0.0594
     18 N5         -6.0303   -9.1164   -0.8577 N.3       1 <0>        -0.5376
     19 C14        -6.7764   -8.9177    0.3934 C.3       1 <0>         0.0136
     20 C15        -8.1946   -9.4704    0.2288 C.3       1 <0>         0.0626
     21 O1         -8.1232  -10.8487   -0.1459 O.3       1 <0>        -0.3852
     22 C16        -7.4039  -11.0787   -1.3605 C.3       1 <0>         0.0627
     23 C17        -5.9777  -10.5423   -1.2119 C.3       1 <0>         0.0169
     24 N6         -3.6149   -2.1660   -0.1981 N.pl3     1 <0>        -0.8760
     25 Cl1         3.8669    2.3071   -0.0512 Cl        1 <0>        -0.0737
     26 H1          0.9824   -1.3645   -1.3399 H         1 <0>         0.1457
     27 H2          3.0940   -0.1006   -1.3594 H         1 <0>         0.1350
     28 H3          1.4042    2.7800    1.2969 H         1 <0>         0.1349
     29 H4         -0.7100    1.5206    1.3253 H         1 <0>         0.1307
     30 H5         -2.0427   -0.2517    0.0986 H         1 <0>         0.4138
     31 H6          0.9523   -4.5889   -0.2258 H         1 <0>         0.1970
     32 H7         -4.3257   -4.5426   -0.4194 H         1 <0>         0.4034
     33 H8         -2.7991   -6.6919   -1.4326 H         1 <0>         0.0680
     34 H9         -2.8649   -6.8373    0.3402 H         1 <0>         0.0656
     35 H10        -5.3420   -6.7670    0.2541 H         1 <0>         0.0680
     36 H11        -5.2763   -6.6216   -1.5187 H         1 <0>         0.0780
     37 H12        -4.1114   -8.8064   -1.6546 H         1 <0>         0.0815
     38 H13        -4.1772   -8.9518    0.1181 H         1 <0>         0.0405
     39 H14        -6.2729   -9.4432    1.2048 H         1 <0>         0.0443
     40 H15        -6.8249   -7.8533    0.6231 H         1 <0>         0.0877
     41 H16        -8.7334   -9.3770    1.1717 H         1 <0>         0.0985
     42 H17        -8.7163   -8.9091   -0.5463 H         1 <0>         0.0600
     43 H18        -7.3708  -12.1484   -1.5669 H         1 <0>         0.0998
     44 H19        -7.9026  -10.5641   -2.1818 H         1 <0>         0.0606
     45 H20        -5.4432  -10.6637   -2.1541 H         1 <0>         0.0882
     46 H21        -5.4614  -11.0937   -0.4262 H         1 <0>         0.0448
     47 H22        -3.6509   -1.1999   -0.1199 H         1 <0>         0.3945
     48 H23        -4.4358   -2.6777   -0.2708 H         1 <0>         0.3958
@<TRIPOS>BOND
     1    1    6 ar
     2    1    2 ar
     3    1   26 1
     4    2    3 ar
     5    2   27 1
     6    3    4 ar
     7    3   25 1
     8    4    5 ar
     9    4   28 1
    10    5    6 ar
    11    5   29 1
    12    6    7 1
    13    7    8 1
    14    7   30 1
    15    8   13 ar
    16    8    9 ar
    17    9   10 ar
    18    9   24 1
    19   10   11 ar
    20   10   14 1
    21   11   12 ar
    22   12   13 ar
    23   12   31 1
    24   14   15 1
    25   14   32 1
    26   15   16 1
    27   15   33 1
    28   15   34 1
    29   16   17 1
    30   16   35 1
    31   16   36 1
    32   17   18 1
    33   17   37 1
    34   17   38 1
    35   18   23 1
    36   18   19 1
    37   19   20 1
    38   19   39 1
    39   19   40 1
    40   20   21 1
    41   20   41 1
    42   20   42 1
    43   21   22 1
    44   22   23 1
    45   22   43 1
    46   22   44 1
    47   23   45 1
    48   23   46 1
    49   24   47 1
    50   24   48 1
@<TRIPOS>MOLECULE
ZINC04014100
   44    48     0     0     0
SMALL
USER_CHARGES

@<TRIPOS>ATOM
      1 C1         -0.0167    1.3788    0.0096 C.ar      1 <0>        -0.1222
      2 C2          1.1695    2.0899    0.0021 C.ar      1 <0>        -0.0981
      3 C3          2.3774    1.4209   -0.0134 C.ar      1 <0>        -0.0954
      4 C4          2.4001    0.0314   -0.0211 C.ar      1 <0>        -0.0871
      5 C5          1.2062   -0.6798   -0.0130 C.ar      1 <0>        -0.1362
      6 C6          0.0021   -0.0041    0.0020 C.ar      1 <0>        -0.0981
      7 S1          3.9390   -0.8266   -0.0415 S.3       1 <0>        -0.0624
      8 C7          3.4652   -2.5776   -0.0459 C.3       1 <0>        -0.0668
      9 C8          4.7054   -3.4335   -0.0632 C.2       1 <0>         0.1547
     10 C9          5.3485   -3.8728   -1.1551 C.2       1 <0>        -0.2329
     11 C10         6.4574   -4.6411   -0.7314 C.2       1 <0>         0.2809
     12 N1          6.4654   -4.6516    0.5695 N.2       1 <0>        -0.2348
     13 N2          5.3739   -3.8924    1.0200 N.pl3     1 <0>        -0.4462
     14 H1          5.1388   -3.7271    1.9464 H         1 <0>         0.4554
     15 O1          7.3070   -5.2262   -1.6173 O.3       1 <0>        -0.2052
     16 C11         6.9279   -5.2806   -2.9095 C.2       1 <0>         0.4597
     17 C12         5.8942   -4.5839   -3.4323 C.2       1 <0>        -0.2583
     18 C13         5.0438   -3.6554   -2.6109 C.3       1 <0>         0.1243
     19 C14         5.2593   -2.2293   -3.0039 C.ar      1 <0>        -0.1252
     20 C15         6.3855   -1.4349   -2.9857 C.ar      1 <0>        -0.0417
     21 C16         6.2405   -0.1241   -3.4271 C.ar      1 <0>        -0.1389
     22 C17         5.0225    0.3569   -3.8628 C.ar      1 <0>        -0.0781
     23 C18         3.8858   -0.4359   -3.8847 C.ar      1 <0>        -0.1315
     24 C19         4.0178   -1.7540   -3.4450 C.ar      1 <0>         0.1517
     25 N3          3.0633   -2.7525   -3.3622 N.am      1 <0>        -0.6631
     26 C20         3.5771   -3.9053   -2.8836 C.2       1 <0>         0.5340
     27 O2          2.9769   -4.9443   -2.7064 O.2       1 <0>        -0.4783
     28 C21         5.5972   -4.7365   -4.8248 C.1       1 <0>         0.2666
     29 N4          5.3615   -4.8575   -5.9295 N.1       1 <0>        -0.4279
     30 N5          7.6396   -6.0982   -3.7515 N.pl3     1 <0>        -0.8225
     31 H2         -0.9599    1.9047    0.0260 H         1 <0>         0.1260
     32 H3          1.1511    3.1697    0.0081 H         1 <0>         0.1293
     33 H4          3.3033    1.9769   -0.0200 H         1 <0>         0.1286
     34 H5          1.2201   -1.7597   -0.0189 H         1 <0>         0.1182
     35 H6         -0.9262   -0.5561    0.0079 H         1 <0>         0.1259
     36 H7          2.8835   -2.7989    0.8489 H         1 <0>         0.1116
     37 H8          2.8651   -2.7894   -0.9309 H         1 <0>         0.1118
     38 H9          7.3376   -1.8134   -2.6443 H         1 <0>         0.1309
     39 H10         7.0989    0.5312   -3.4287 H         1 <0>         0.1250
     40 H11         4.9530    1.3818   -4.1962 H         1 <0>         0.1252
     41 H12         2.9372   -0.0496   -4.2274 H         1 <0>         0.1311
     42 H13         2.1347   -2.6375   -3.6177 H         1 <0>         0.4154
     43 H14         8.3878   -6.6126   -3.4102 H         1 <0>         0.4156
     44 H15         7.3943   -6.1617   -4.6878 H         1 <0>         0.4290
@<TRIPOS>BOND
     1    1    6 ar
     2    1    2 ar
     3    1   31 1
     4    2    3 ar
     5    2   32 1
     6    3    4 ar
     7    3   33 1
     8    4    5 ar
     9    4    7 1
    10    5    6 ar
    11    5   34 1
    12    6   35 1
    13    7    8 1
    14    8    9 1
    15    8   36 1
    16    8   37 1
    17    9   13 1
    18    9   10 2
    19   10   18 1
    20   10   11 1
    21   11   12 2
    22   11   15 1
    23   12   13 1
    24   13   14 1
    25   15   16 1
    26   16   17 2
    27   16   30 1
    28   17   18 1
    29   17   28 1
    30   18   26 1
    31   18   19 1
    32   19   24 ar
    33   19   20 ar
    34   20   21 ar
    35   20   38 1
    36   21   22 ar
    37   21   39 1
    38   22   23 ar
    39   22   40 1
    40   23   24 ar
    41   23   41 1
    42   24   25 1
    43   25   26 am
    44   25   42 1
    45   26   27 2
    46   28   29 3
    47   30   43 1
    48   30   44 1
@<TRIPOS>MOLECULE
ZINC63415974
   33    35     0     0     0
SMALL
USER_CHARGES

@<TRIPOS>ATOM
      1 C1         -0.0167    1.3805    0.0096 C.ar      1 <0>        -0.1049
      2 C2          1.1664    2.0897    0.0021 C.ar      1 <0>        -0.0406
      3 C3          2.3847    1.4094   -0.0132 C.ar      1 <0>        -0.0143
      4 C4          2.3980    0.0124   -0.0208 C.ar      1 <0>         0.0011
      5 C5          1.2071   -0.6859   -0.0132 C.ar      1 <0>        -0.1034
      6 C6          0.0021   -0.0041    0.0020 C.ar      1 <0>        -0.0015
      7 Cl1        -1.4915   -0.8888    0.0116 Cl        1 <0>        -0.0401
      8 Cl2         3.9083   -0.8434   -0.0404 Cl        1 <0>        -0.0257
      9 C7          3.6558    2.1636   -0.0217 C.2       1 <0>         0.2104
     10 N1          3.7863    3.4696   -0.0107 N.2       1 <0>        -0.2600
     11 N2          5.0370    3.7711   -0.0234 N.2       1 <0>        -0.2528
     12 C8          5.7485    2.6788   -0.0429 C.2       1 <0>         0.1759
     13 O1          4.8972    1.6383   -0.0365 O.3       1 <0>        -0.1944
     14 C9          7.2531    2.5973   -0.0633 C.3       1 <0>        -0.0218
     15 S1          7.8791    2.5478    1.6386 S.3       1 <0>         0.0471
     16 C10         9.6281    2.4546    1.4470 C.ar      1 <0>         0.3809
     17 N3         10.1439    2.4432    0.2264 N.ar      1 <0>        -0.6199
     18 C11        11.4604    2.3740    0.0435 C.ar      1 <0>         0.4792
     19 C12        12.2965    2.3133    1.1546 C.ar      1 <0>        -0.3673
     20 C13        11.7184    2.3274    2.4206 C.ar      1 <0>         0.4794
     21 N4         10.3938    2.4032    2.5272 N.ar      1 <0>        -0.5879
     22 N5         12.5119    2.2683    3.5557 N.pl3     1 <0>        -0.8336
     23 N6         11.9918    2.3622   -1.2367 N.pl3     1 <0>        -0.8351
     24 H1         -0.9599    1.9064    0.0260 H         1 <0>         0.1556
     25 H2          1.1499    3.1696    0.0078 H         1 <0>         0.1619
     26 H3          1.2154   -1.7658   -0.0194 H         1 <0>         0.1563
     27 H4          7.5610    1.6941   -0.5900 H         1 <0>         0.1299
     28 H5          7.6575    3.4713   -0.5738 H         1 <0>         0.1440
     29 H6         13.3686    2.2562    1.0371 H         1 <0>         0.1387
     30 H7         13.4768    2.2166    3.4707 H         1 <0>         0.4129
     31 H8         12.1023    2.2786    4.4349 H         1 <0>         0.4094
     32 H9         11.4032    2.4044   -2.0066 H         1 <0>         0.4078
     33 H10        12.9523    2.3116   -1.3627 H         1 <0>         0.4127
@<TRIPOS>BOND
     1    1    6 ar
     2    1    2 ar
     3    1   24 1
     4    2    3 ar
     5    2   25 1
     6    3    4 ar
     7    3    9 1
     8    4    5 ar
     9    4    8 1
    10    5    6 ar
    11    5   26 1
    12    6    7 1
    13    9   13 1
    14    9   10 2
    15   10   11 1
    16   11   12 2
    17   12   13 1
    18   12   14 1
    19   14   15 1
    20   14   27 1
    21   14   28 1
    22   15   16 1
    23   16   21 ar
    24   16   17 ar
    25   17   18 ar
    26   18   19 ar
    27   18   23 1
    28   19   20 ar
    29   19   29 1
    30   20   21 ar
    31   20   22 1
    32   22   30 1
    33   22   31 1
    34   23   32 1
    35   23   33 1
@<TRIPOS>MOLECULE
ZINC12961250
   54    57     0     0     0
SMALL
USER_CHARGES
1-[[2-[1-[3-chloro-5-(trifluoromethyl)-2-pyridyl]indol-3-yl]acetyl]amino]-3-[3-(trifluoromethyl)phenyl]thiourea
@<TRIPOS>ATOM
      1 C1          4.2021    1.4089   12.1808 C.ar      1 <0>        -0.1316
      2 C2          4.7992    2.2157   13.1397 C.ar      1 <0>        -0.0954
      3 C3          5.1931    3.4995   12.8311 C.ar      1 <0>        -0.1105
      4 C4          4.9916    3.9941   11.5472 C.ar      1 <0>         0.1109
      5 C5          4.3865    3.1726   10.5789 C.ar      1 <0>        -0.0800
      6 C6          3.9951    1.8749   10.9130 C.ar      1 <0>        -0.0725
      7 C7          4.3195    3.9721    9.3526 C.2       1 <0>        -0.1398
      8 C8          4.8635    5.1669    9.6311 C.2       1 <0>         0.0817
      9 N1          5.2673    5.2021   10.9408 N.pl3     1 <0>        -0.4313
     10 C9          5.8715    6.2947   11.5655 C.ar      1 <0>         0.3921
     11 C10         5.2993    7.5577   11.4507 C.ar      1 <0>        -0.1012
     12 C11         5.9070    8.6315   12.0791 C.ar      1 <0>         0.0068
     13 C12         7.0751    8.4054   12.7945 C.ar      1 <0>        -0.2361
     14 C13         7.5895    7.1259   12.8623 C.ar      1 <0>         0.1857
     15 N2          6.9861    6.1207   12.2570 N.ar      1 <0>        -0.4688
     16 C14         7.7746    9.5449   13.4896 C.3       1 <0>         0.5218
     17 F1          8.9189    9.0650   14.1358 F         1 <0>        -0.1686
     18 F2          8.1420   10.5111   12.5470 F         1 <0>        -0.1687
     19 F3          6.9123   10.1165   14.4315 F         1 <0>        -0.1684
     20 Cl1         3.8407    7.7832   10.5367 Cl        1 <0>        -0.0112
     21 C15         3.7528    3.5332    8.0270 C.3       1 <0>        -0.0511
     22 C16         2.2629    3.7594    8.0181 C.2       1 <0>         0.5173
     23 O1          1.7152    4.2307    8.9922 O.2       1 <0>        -0.4976
     24 N3          1.5390    3.4380    6.9276 N.am      1 <0>        -0.5560
     25 N4          0.1539    3.6483    6.9193 N.pl3     1 <0>        -0.4593
     26 C17        -0.5700    3.3269    5.8288 C.2       1 <0>         0.5494
     27 S1         -2.2626    3.5839    5.8186 S.2       1 <0>        -0.5553
     28 N5          0.0386    2.8032    4.7463 N.pl3     1 <0>        -0.6326
     29 C18        -0.6910    2.5782    3.5741 C.ar      1 <0>         0.1240
     30 C19        -0.4990    1.4095    2.8484 C.ar      1 <0>        -0.0894
     31 C20        -1.2211    1.1901    1.6920 C.ar      1 <0>        -0.1111
     32 C21        -2.1386    2.1302    1.2590 C.ar      1 <0>        -0.0630
     33 C22        -2.3283    3.2969    1.9763 C.ar      1 <0>        -0.1731
     34 C23        -1.6091    3.5224    3.1339 C.ar      1 <0>        -0.0269
     35 C24        -3.3252    4.3208    1.4981 C.3       1 <0>         0.5092
     36 F4         -2.6880    5.2301    0.6471 F         1 <0>        -0.1774
     37 F5         -3.8558    5.0041    2.5975 F         1 <0>        -0.1684
     38 F6         -4.3574    3.6787    0.8056 F         1 <0>        -0.1759
     39 H1          3.8991    0.4049   12.4388 H         1 <0>         0.1270
     40 H2          4.9570    1.8332   14.1373 H         1 <0>         0.1298
     41 H3          5.6572    4.1195   13.5839 H         1 <0>         0.1216
     42 H4          3.5306    1.2413   10.1719 H         1 <0>         0.1219
     43 H5          4.9657    5.9807    8.9286 H         1 <0>         0.1720
     44 H6          5.4844    9.6230   12.0105 H         1 <0>         0.1682
     45 H7          8.4980    6.9455   13.4177 H         1 <0>         0.1897
     46 H8          3.9603    2.4738    7.8760 H         1 <0>         0.1160
     47 H9          4.2129    4.1114    7.2257 H         1 <0>         0.1139
     48 H10         1.9770    3.0611    6.1485 H         1 <0>         0.4200
     49 H11        -0.2841    4.0252    7.6984 H         1 <0>         0.4622
     50 H12         0.9825    2.5824    4.7799 H         1 <0>         0.4039
     51 H13         0.2141    0.6730    3.1883 H         1 <0>         0.1360
     52 H14        -1.0723    0.2817    1.1272 H         1 <0>         0.1432
     53 H15        -2.7051    1.9544    0.3565 H         1 <0>         0.1407
     54 H16        -1.7605    4.4322    3.6958 H         1 <0>         0.1564
@<TRIPOS>BOND
     1    1    6 ar
     2    1    2 ar
     3    1   39 1
     4    2    3 ar
     5    2   40 1
     6    3    4 ar
     7    3   41 1
     8    4    9 1
     9    4    5 ar
    10    5    6 ar
    11    5    7 1
    12    6   42 1
    13    7    8 2
    14    7   21 1
    15    8    9 1
    16    8   43 1
    17    9   10 1
    18   10   15 ar
    19   10   11 ar
    20   11   12 ar
    21   11   20 1
    22   12   13 ar
    23   12   44 1
    24   13   14 ar
    25   13   16 1
    26   14   15 ar
    27   14   45 1
    28   16   17 1
    29   16   18 1
    30   16   19 1
    31   21   22 1
    32   21   46 1
    33   21   47 1
    34   22   23 2
    35   22   24 am
    36   24   25 1
    37   24   48 1
    38   25   26 1
    39   25   49 1
    40   26   27 2
    41   26   28 1
    42   28   29 1
    43   28   50 1
    44   29   34 ar
    45   29   30 ar
    46   30   31 ar
    47   30   51 1
    48   31   32 ar
    49   31   52 1
    50   32   33 ar
    51   32   53 1
    52   33   34 ar
    53   33   35 1
    54   34   54 1
    55   35   36 1
    56   35   37 1
    57   35   38 1
@<TRIPOS>MOLECULE
ZINC36484822
   70    72     0     0     0
SMALL
USER_CHARGES

@<TRIPOS>ATOM
      1 C1          1.2036    0.9648   -2.6664 C.3       1 <0>        -0.1609
      2 C2          1.5411    1.8062   -1.4339 C.3       1 <0>        -0.0672
      3 C3          2.4878    2.9397   -1.8339 C.3       1 <0>        -0.1687
      4 C4          0.2553    2.3970   -0.8521 C.3       1 <0>        -0.1414
      5 C5          2.2178    0.9234   -0.3834 C.3       1 <0>        -0.1157
      6 C6          3.6952    0.7475   -0.7401 C.3       1 <0>         0.1805
      7 C7          4.4647    2.0159   -0.3662 C.3       1 <0>        -0.2081
      8 C8          4.2680   -0.4428    0.0320 C.3       1 <0>        -0.1600
      9 N1          3.8246    0.5041   -2.1789 N.am      1 <0>        -0.7218
     10 C9          5.0462    0.4436   -2.7450 C.2       1 <0>         0.5126
     11 O1          6.0384    0.5905   -2.0632 O.2       1 <0>        -0.5032
     12 C10         5.1792    0.1933   -4.2251 C.3       1 <0>         0.1737
     13 H1          4.7261   -0.7664   -4.4735 H         1 <0>         0.1095
     14 C11         4.4799    1.2907   -4.9850 C.ar      1 <0>        -0.0866
     15 C12         4.9573    2.5871   -4.9223 C.ar      1 <0>        -0.0956
     16 C13         4.3180    3.5960   -5.6182 C.ar      1 <0>        -0.0955
     17 C14         3.1997    3.3114   -6.3781 C.ar      1 <0>        -0.1289
     18 C15         2.7188    2.0120   -6.4427 C.ar      1 <0>         0.1109
     19 C16         3.3659    0.9999   -5.7481 C.ar      1 <0>        -0.1294
     20 O2          1.6191    1.7295   -7.1895 O.3       1 <0>        -0.4959
     21 N2          6.5976    0.1729   -4.5914 N.am      1 <0>        -0.5459
     22 C17         7.0929    1.0926   -5.5213 C.ar      1 <0>         0.1527
     23 C18         6.6996    1.0178   -6.8515 C.ar      1 <0>        -0.1162
     24 C19         7.1897    1.9274   -7.7677 C.ar      1 <0>        -0.0948
     25 C20         8.0715    2.9126   -7.3626 C.ar      1 <0>        -0.1070
     26 C21         8.4661    2.9901   -6.0385 C.ar      1 <0>        -0.0232
     27 C22         7.9743    2.0858   -5.1156 C.ar      1 <0>        -0.1058
     28 Cl1         9.5737    4.2282   -5.5345 Cl        1 <0>        -0.0603
     29 C23         7.4251   -0.7321   -4.0322 C.2       1 <0>         0.6009
     30 O3          6.9817   -1.5775   -3.2784 O.2       1 <0>        -0.4991
     31 C24         8.8656   -0.6974   -4.3337 C.ar      1 <0>        -0.1794
     32 C25         9.7335    0.0737   -3.5467 C.ar      1 <0>         0.1647
     33 C26        11.0875    0.0987   -3.8390 C.ar      1 <0>        -0.1544
     34 C27        11.5839   -0.6327   -4.9020 C.ar      1 <0>        -0.0683
     35 C28        10.7373   -1.3962   -5.6841 C.ar      1 <0>        -0.1553
     36 C29         9.3807   -1.4399   -5.4064 C.ar      1 <0>         0.1559
     37 O4          8.5530   -2.1942   -6.1720 O.3       1 <0>        -0.4873
     38 O5          9.2489    0.7927   -2.5034 O.3       1 <0>        -0.4845
     39 H2          1.9209    1.1775   -3.4591 H         1 <0>         0.0623
     40 H3          1.2507   -0.0931   -2.4081 H         1 <0>         0.0598
     41 H4          0.1988    1.2105   -3.0101 H         1 <0>         0.0664
     42 H5          2.1090    3.4301   -2.7307 H         1 <0>         0.0487
     43 H6          2.5501    3.6646   -1.0222 H         1 <0>         0.0582
     44 H7          3.4787    2.5320   -2.0338 H         1 <0>         0.0916
     45 H8         -0.4191    1.5895   -0.5671 H         1 <0>         0.0555
     46 H9          0.4958    2.9965    0.0260 H         1 <0>         0.0553
     47 H10        -0.2267    3.0259   -1.6005 H         1 <0>         0.0562
     48 H11         2.1341    1.3948    0.5958 H         1 <0>         0.0805
     49 H12         1.7311   -0.0516   -0.3601 H         1 <0>         0.0700
     50 H13         4.6046    2.0508    0.7143 H         1 <0>         0.0562
     51 H14         5.4372    2.0093   -0.8584 H         1 <0>         0.0861
     52 H15         3.9005    2.8913   -0.6879 H         1 <0>         0.0907
     53 H16         3.7811   -1.3597   -0.3002 H         1 <0>         0.0529
     54 H17         5.3400   -0.5134   -0.1522 H         1 <0>         0.0733
     55 H18         4.0910   -0.3033    1.0984 H         1 <0>         0.0616
     56 H19         3.0310    0.3866   -2.7242 H         1 <0>         0.4034
     57 H20         5.8308    2.8117   -4.3283 H         1 <0>         0.1266
     58 H21         4.6927    4.6077   -5.5676 H         1 <0>         0.1295
     59 H22         2.7002    4.1002   -6.9211 H         1 <0>         0.1310
     60 H23         2.9963   -0.0135   -5.8006 H         1 <0>         0.1319
     61 H24         1.8164    1.4917   -8.1058 H         1 <0>         0.3923
     62 H25         6.0112    0.2486   -7.1690 H         1 <0>         0.1303
     63 H26         6.8842    1.8691   -8.8019 H         1 <0>         0.1368
     64 H27         8.4534    3.6227   -8.0812 H         1 <0>         0.1361
     65 H28         8.2787    2.1491   -4.0814 H         1 <0>         0.1501
     66 H29        11.7576    0.6921   -3.2346 H         1 <0>         0.1389
     67 H30        12.6407   -0.6073   -5.1231 H         1 <0>         0.1372
     68 H31        11.1355   -1.9635   -6.5124 H         1 <0>         0.1381
     69 H32         8.1838   -1.7246   -6.9324 H         1 <0>         0.3907
     70 H33         9.2365    0.3105   -1.6653 H         1 <0>         0.4008
@<TRIPOS>BOND
     1    1    2 1
     2    1   39 1
     3    1   40 1
     4    1   41 1
     5    2    3 1
     6    2    4 1
     7    2    5 1
     8    3   42 1
     9    3   43 1
    10    3   44 1
    11    4   45 1
    12    4   46 1
    13    4   47 1
    14    5    6 1
    15    5   48 1
    16    5   49 1
    17    6    7 1
    18    6    8 1
    19    6    9 1
    20    7   50 1
    21    7   51 1
    22    7   52 1
    23    8   53 1
    24    8   54 1
    25    8   55 1
    26    9   10 am
    27    9   56 1
    28   10   11 2
    29   10   12 1
    30   12   13 1
    31   12   14 1
    32   12   21 1
    33   14   19 ar
    34   14   15 ar
    35   15   16 ar
    36   15   57 1
    37   16   17 ar
    38   16   58 1
    39   17   18 ar
    40   17   59 1
    41   18   19 ar
    42   18   20 1
    43   19   60 1
    44   20   61 1
    45   21   22 1
    46   21   29 am
    47   22   27 ar
    48   22   23 ar
    49   23   24 ar
    50   23   62 1
    51   24   25 ar
    52   24   63 1
    53   25   26 ar
    54   25   64 1
    55   26   27 ar
    56   26   28 1
    57   27   65 1
    58   29   30 2
    59   29   31 1
    60   31   36 ar
    61   31   32 ar
    62   32   33 ar
    63   32   38 1
    64   33   34 ar
    65   33   66 1
    66   34   35 ar
    67   34   67 1
    68   35   36 ar
    69   35   68 1
    70   36   37 1
    71   37   69 1
    72   38   70 1
@<TRIPOS>MOLECULE
ZINC36545355
   75    77     0     0     0
SMALL
USER_CHARGES

@<TRIPOS>ATOM
      1 C1          3.7903   -2.6598   -3.7617 C.3       1 <0>        -0.1177
      2 C2          3.1371   -3.4036   -2.6254 C.ar      1 <0>        -0.0624
      3 C3          3.6711   -4.6003   -2.1849 C.ar      1 <0>        -0.1241
      4 C4          3.0721   -5.2824   -1.1428 C.ar      1 <0>        -0.0818
      5 C5          1.9390   -4.7678   -0.5404 C.ar      1 <0>        -0.1066
      6 C6          1.4057   -3.5709   -0.9801 C.ar      1 <0>        -0.0451
      7 C7          2.0074   -2.8865   -2.0198 C.ar      1 <0>        -0.1236
      8 C8          0.1704   -3.0102   -0.3239 C.3       1 <0>        -0.1314
      9 C9          1.2853   -5.5120    0.5953 C.3       1 <0>         0.1659
     10 H1          0.6991   -4.8164    1.1958 H         1 <0>         0.1279
     11 C10         2.3464   -6.1479    1.4559 C.2       1 <0>         0.5094
     12 O1          2.7001   -7.2877    1.2395 O.2       1 <0>        -0.5207
     13 N1          2.9023   -5.4502    2.4661 N.am      1 <0>        -0.7183
     14 C11         4.0202   -6.0203    3.2220 C.3       1 <0>         0.1772
     15 C12         3.5869   -7.3458    3.8515 C.3       1 <0>        -0.1633
     16 C13         5.2007   -6.2649    2.2800 C.3       1 <0>        -0.1777
     17 C14         4.4405   -5.0457    4.3240 C.3       1 <0>        -0.1155
     18 C15         4.2826   -3.6091    3.8217 C.3       1 <0>        -0.0718
     19 C16         2.8236   -3.1738    3.9717 C.3       1 <0>        -0.1592
     20 C17         5.1790   -2.6803    4.6432 C.3       1 <0>        -0.1404
     21 C18         4.6876   -3.5367    2.3481 C.3       1 <0>        -0.1781
     22 N2          0.4061   -6.5522    0.0555 N.am      1 <0>        -0.5414
     23 C19         0.9208   -7.5232   -0.8102 C.ar      1 <0>         0.1317
     24 C20         1.4509   -8.7006   -0.2991 C.ar      1 <0>        -0.0543
     25 C21         1.9578   -9.6576   -1.1563 C.ar      1 <0>        -0.1211
     26 C22         1.9387   -9.4446   -2.5226 C.ar      1 <0>        -0.0931
     27 C23         1.4119   -8.2737   -3.0357 C.ar      1 <0>        -0.1182
     28 C24         0.8976   -7.3143   -2.1839 C.ar      1 <0>        -0.0175
     29 Cl1         0.2302   -5.8472   -2.8289 Cl        1 <0>        -0.0577
     30 C25        -0.8986   -6.5736    0.3929 C.2       1 <0>         0.5788
     31 O2         -1.3271   -5.7862    1.2145 O.2       1 <0>        -0.5048
     32 C26        -1.8067   -7.5524   -0.2344 C.ar      1 <0>        -0.1387
     33 C27        -1.5112   -8.9180   -0.1836 C.ar      1 <0>        -0.0791
     34 C28        -2.3615   -9.8290   -0.7705 C.ar      1 <0>        -0.1132
     35 C29        -3.5112   -9.3999   -1.4135 C.ar      1 <0>        -0.1085
     36 C30        -3.8176   -8.0511   -1.4723 C.ar      1 <0>         0.0781
     37 C31        -2.9715   -7.1190   -0.8786 C.ar      1 <0>         0.1353
     38 O3         -3.2712   -5.7961   -0.9292 O.3       1 <0>        -0.4766
     39 O4         -4.9477   -7.6374   -2.1056 O.3       1 <0>        -0.4886
     40 H2          4.5391   -1.9745   -3.3646 H         1 <0>         0.0716
     41 H3          4.2693   -3.3716   -4.4341 H         1 <0>         0.0669
     42 H4          3.0349   -2.0955   -4.3084 H         1 <0>         0.0662
     43 H5          4.5562   -5.0024   -2.6555 H         1 <0>         0.1198
     44 H6          3.4889   -6.2177   -0.7992 H         1 <0>         0.1238
     45 H7          1.5928   -1.9494   -2.3609 H         1 <0>         0.1213
     46 H8          0.4609   -2.3046    0.4544 H         1 <0>         0.0732
     47 H9         -0.4369   -2.4981   -1.0703 H         1 <0>         0.0697
     48 H10        -0.4064   -3.8223    0.1187 H         1 <0>         0.0762
     49 H11         2.5621   -4.5704    2.6927 H         1 <0>         0.4067
     50 H12         3.3762   -8.0700    3.0646 H         1 <0>         0.0823
     51 H13         4.3863   -7.7239    4.4887 H         1 <0>         0.0609
     52 H14         2.6895   -7.1878    4.4496 H         1 <0>         0.0523
     53 H15         5.4035   -5.3590    1.7088 H         1 <0>         0.0758
     54 H16         6.0820   -6.5314    2.8635 H         1 <0>         0.0610
     55 H17         4.9577   -7.0786    1.5966 H         1 <0>         0.0701
     56 H18         3.8106   -5.1952    5.2009 H         1 <0>         0.0716
     57 H19         5.4822   -5.2252    4.5900 H         1 <0>         0.0804
     58 H20         2.3212   -3.8266    4.6855 H         1 <0>         0.0644
     59 H21         2.7863   -2.1455    4.3312 H         1 <0>         0.0689
     60 H22         2.3237   -3.2392    3.0052 H         1 <0>         0.0572
     61 H23         6.2184   -2.9904    4.5364 H         1 <0>         0.0559
     62 H24         5.0665   -1.6568    4.2854 H         1 <0>         0.0567
     63 H25         4.8905   -2.7319    5.6930 H         1 <0>         0.0559
     64 H26         4.1153   -4.2682    1.7776 H         1 <0>         0.0910
     65 H27         4.4844   -2.5370    1.9641 H         1 <0>         0.0506
     66 H28         5.7516   -3.7533    2.2526 H         1 <0>         0.0590
     67 H29         1.4670   -8.8677    0.7678 H         1 <0>         0.1432
     68 H30         2.3701  -10.5733   -0.7590 H         1 <0>         0.1311
     69 H31         2.3364  -10.1944   -3.1904 H         1 <0>         0.1318
     70 H32         1.3984   -8.1105   -4.1032 H         1 <0>         0.1330
     71 H33        -0.6161   -9.2586    0.3156 H         1 <0>         0.1356
     72 H34        -2.1306  -10.8832   -0.7296 H         1 <0>         0.1373
     73 H35        -4.1717  -10.1212   -1.8715 H         1 <0>         0.1386
     74 H36        -2.9116   -5.3406   -1.7027 H         1 <0>         0.3911
     75 H37        -5.7242   -7.5868   -1.5316 H         1 <0>         0.3948
@<TRIPOS>BOND
     1    1    2 1
     2    1   40 1
     3    1   41 1
     4    1   42 1
     5    2    7 ar
     6    2    3 ar
     7    3    4 ar
     8    3   43 1
     9    4    5 ar
    10    4   44 1
    11    5    6 ar
    12    5    9 1
    13    6    7 ar
    14    6    8 1
    15    7   45 1
    16    8   46 1
    17    8   47 1
    18    8   48 1
    19    9   10 1
    20    9   11 1
    21    9   22 1
    22   11   12 2
    23   11   13 am
    24   13   14 1
    25   13   49 1
    26   14   15 1
    27   14   16 1
    28   14   17 1
    29   15   50 1
    30   15   51 1
    31   15   52 1
    32   16   53 1
    33   16   54 1
    34   16   55 1
    35   17   18 1
    36   17   56 1
    37   17   57 1
    38   18   19 1
    39   18   20 1
    40   18   21 1
    41   19   58 1
    42   19   59 1
    43   19   60 1
    44   20   61 1
    45   20   62 1
    46   20   63 1
    47   21   64 1
    48   21   65 1
    49   21   66 1
    50   22   23 1
    51   22   30 am
    52   23   28 ar
    53   23   24 ar
    54   24   25 ar
    55   24   67 1
    56   25   26 ar
    57   25   68 1
    58   26   27 ar
    59   26   69 1
    60   27   28 ar
    61   27   70 1
    62   28   29 1
    63   30   31 2
    64   30   32 1
    65   32   37 ar
    66   32   33 ar
    67   33   34 ar
    68   33   71 1
    69   34   35 ar
    70   34   72 1
    71   35   36 ar
    72   35   73 1
    73   36   37 ar
    74   36   39 1
    75   37   38 1
    76   38   74 1
    77   39   75 1
@<TRIPOS>MOLECULE
ZINC40730039
   65    69     0     0     0
SMALL
USER_CHARGES

@<TRIPOS>ATOM
      1 C1         -0.5607    1.1383   -0.0983 C.ar      1 <0>        -0.1187
      2 C2          0.5307    1.9777   -0.2210 C.ar      1 <0>        -0.1203
      3 C3          1.8059    1.4482   -0.2867 C.ar      1 <0>        -0.1132
      4 C4          1.9898    0.0794   -0.2292 C.ar      1 <0>        -0.0763
      5 C5          0.8984   -0.7600   -0.1056 C.ar      1 <0>        -0.0904
      6 C6         -0.3769   -0.2306   -0.0413 C.ar      1 <0>        -0.1242
      7 C7          3.3799   -0.4979   -0.3018 C.3       1 <0>         0.1678
      8 C8          3.8526   -0.8456    1.0862 C.ar      1 <0>        -0.0756
      9 C9          3.4385   -2.0216    1.6831 C.ar      1 <0>        -0.0889
     10 C10         3.8721   -2.3405    2.9563 C.ar      1 <0>        -0.1245
     11 C11         4.7202   -1.4836    3.6326 C.ar      1 <0>        -0.1189
     12 C12         5.1351   -0.3080    3.0353 C.ar      1 <0>        -0.1206
     13 C13         4.7049    0.0089    1.7604 C.ar      1 <0>        -0.1136
     14 N1          3.3641   -1.7100   -1.1316 N.3       1 <0>        -0.5221
     15 C14         2.8115   -1.4290   -2.4634 C.3       1 <0>         0.0383
     16 C15         2.6438   -2.7446   -3.2311 C.3       1 <0>         0.1565
     17 N2          3.9321   -3.4541   -3.2294 N.pl3     1 <0>        -0.6545
     18 C16         4.6154   -3.6528   -1.9422 C.3       1 <0>         0.1573
     19 C17         4.7055   -2.3015   -1.2252 C.3       1 <0>         0.0397
     20 C18         4.4889   -3.9247   -4.4126 C.ar      1 <0>         0.3723
     21 C19         4.2580   -5.2363   -4.8323 C.ar      1 <0>         0.0775
     22 C20         4.8407   -5.6576   -6.0286 C.ar      1 <0>         0.3674
     23 N3          5.5888   -4.7995   -6.7188 N.ar      1 <0>        -0.5320
     24 C21         5.7816   -3.5698   -6.2870 C.ar      1 <0>         0.2879
     25 N4          5.2457   -3.1307   -5.1659 N.ar      1 <0>        -0.5214
     26 N5          4.6433   -6.9534   -6.4921 N.pl3     1 <0>        -0.6554
     27 C22         5.3206   -7.3994   -7.6330 C.ar      1 <0>         0.1538
     28 C23         4.7183   -8.3165   -8.4845 C.ar      1 <0>        -0.1198
     29 C24         5.3872   -8.7560   -9.6098 C.ar      1 <0>        -0.0988
     30 C25         6.6603   -8.2818   -9.8899 C.ar      1 <0>         0.0802
     31 C26         7.2628   -7.3661   -9.0398 C.ar      1 <0>        -0.1654
     32 C27         6.5929   -6.9208   -7.9173 C.ar      1 <0>        -0.0771
     33 O1          7.3183   -8.7151  -10.9983 O.3       1 <0>        -0.3110
     34 C28         8.6259   -8.1852  -11.2252 C.3       1 <0>         0.6037
     35 F1          9.4543   -8.5095  -10.1455 F         1 <0>        -0.1656
     36 F2          9.1539   -8.7333  -12.3991 F         1 <0>        -0.1316
     37 F3          8.5496   -6.7942  -11.3531 F         1 <0>        -0.1642
     38 N6          3.4618   -6.1076   -4.0716 N.pl3     1 <0>        -0.8616
     39 H1         -1.5567    1.5522   -0.0425 H         1 <0>         0.1201
     40 H2          0.3871    3.0472   -0.2659 H         1 <0>         0.1211
     41 H3          2.6586    2.1040   -0.3833 H         1 <0>         0.1179
     42 H4          1.0420   -1.8295   -0.0614 H         1 <0>         0.1294
     43 H5         -1.2296   -0.8864    0.0549 H         1 <0>         0.1209
     44 H6          4.0553    0.2354   -0.7426 H         1 <0>         0.0559
     45 H7          2.7759   -2.6911    1.1548 H         1 <0>         0.1293
     46 H8          3.5479   -3.2590    3.4229 H         1 <0>         0.1207
     47 H9          5.0584   -1.7324    4.6276 H         1 <0>         0.1198
     48 H10         5.7974    0.3617    3.5638 H         1 <0>         0.1209
     49 H11         5.0320    0.9256    1.2923 H         1 <0>         0.1177
     50 H12         1.8418   -0.9423   -2.3596 H         1 <0>         0.0863
     51 H13         3.4912   -0.7740   -3.0085 H         1 <0>         0.0408
     52 H14         1.8867   -3.3590   -2.7437 H         1 <0>         0.0625
     53 H15         2.3432   -2.5339   -4.2575 H         1 <0>         0.0703
     54 H16         4.0478   -4.3545   -1.3309 H         1 <0>         0.0627
     55 H17         5.6183   -4.0425   -2.1163 H         1 <0>         0.0698
     56 H18         5.3588   -1.6343   -1.7875 H         1 <0>         0.0405
     57 H19         5.1093   -2.4475   -0.2234 H         1 <0>         0.0850
     58 H20         6.3945   -2.8999   -6.8717 H         1 <0>         0.1949
     59 H21         4.0363   -7.5484   -6.0248 H         1 <0>         0.4150
     60 H22         3.7273   -8.6861   -8.2663 H         1 <0>         0.1375
     61 H23         4.9191   -9.4695  -10.2718 H         1 <0>         0.1418
     62 H24         8.2544   -6.9979   -9.2583 H         1 <0>         0.1353
     63 H25         7.0603   -6.2043   -7.2581 H         1 <0>         0.1467
     64 H26         2.9893   -5.7766   -3.2918 H         1 <0>         0.4073
     65 H27         3.3843   -7.0405   -4.3259 H         1 <0>         0.3928
@<TRIPOS>BOND
     1    1    6 ar
     2    1    2 ar
     3    1   39 1
     4    2    3 ar
     5    2   40 1
     6    3    4 ar
     7    3   41 1
     8    4    5 ar
     9    4    7 1
    10    5    6 ar
    11    5   42 1
    12    6   43 1
    13    7    8 1
    14    7   14 1
    15    7   44 1
    16    8   13 ar
    17    8    9 ar
    18    9   10 ar
    19    9   45 1
    20   10   11 ar
    21   10   46 1
    22   11   12 ar
    23   11   47 1
    24   12   13 ar
    25   12   48 1
    26   13   49 1
    27   14   19 1
    28   14   15 1
    29   15   16 1
    30   15   50 1
    31   15   51 1
    32   16   17 1
    33   16   52 1
    34   16   53 1
    35   17   18 1
    36   17   20 1
    37   18   19 1
    38   18   54 1
    39   18   55 1
    40   19   56 1
    41   19   57 1
    42   20   25 ar
    43   20   21 ar
    44   21   22 ar
    45   21   38 1
    46   22   23 ar
    47   22   26 1
    48   23   24 ar
    49   24   25 ar
    50   24   58 1
    51   26   27 1
    52   26   59 1
    53   27   32 ar
    54   27   28 ar
    55   28   29 ar
    56   28   60 1
    57   29   30 ar
    58   29   61 1
    59   30   31 ar
    60   30   33 1
    61   31   32 ar
    62   31   62 1
    63   32   63 1
    64   33   34 1
    65   34   35 1
    66   34   36 1
    67   34   37 1
    68   38   64 1
    69   38   65 1
@<TRIPOS>MOLECULE
ZINC59310095
   68    72     0     0     0
SMALL
NO_CHARGES

@<TRIPOS>ATOM
      1 C1          1.7594    1.6194    1.6861 C.3       1 <0>        -0.1853
      2 C2          1.9367    0.1081    1.5266 C.3       1 <0>        -0.0112
      3 N1          0.7064   -0.4736    0.9733 N.4       1 <0>        -0.2649
      4 C3          0.4915    0.0381   -0.3868 C.3       1 <0>        -0.0163
      5 C4         -0.8516   -0.4686   -0.9161 C.3       1 <0>        -0.1678
      6 C5          0.8260   -1.8659    0.9339 C.ar      1 <0>        -0.2726
      7 C6          1.8395   -2.4508    0.1971 C.ar      1 <0>        -0.1449
      8 C7          1.9603   -3.8260    0.1561 C.ar      1 <0>        -0.0708
      9 C8          1.0628   -4.6215    0.8563 C.ar      1 <0>        -0.0449
     10 C9          0.0464   -4.0311    1.5957 C.ar      1 <0>        -0.1134
     11 C10        -0.0661   -2.6551    1.6365 C.ar      1 <0>        -0.1237
     12 N2          1.1822   -6.0151    0.8165 N.am      1 <0>        -0.6305
     13 C11         2.4001   -6.5847    0.7233 C.2       1 <0>         0.5000
     14 O1          3.3971   -5.8957    0.7706 O.2       1 <0>        -0.5228
     15 C12         2.5232   -8.0778    0.5604 C.3       1 <0>        -0.1553
     16 S1          4.2765   -8.5333    0.4653 S.3       1 <0>         0.1097
     17 C13         4.2523  -10.2852    0.2786 C.2       1 <0>         0.2182
     18 N3          5.3295  -11.0699    0.1715 N.2       1 <0>        -0.5212
     19 C14         4.9525  -12.3251    0.0454 C.2       1 <0>         0.5577
     20 N4          3.6030  -12.3595    0.0709 N.pl3     1 <0>        -0.5048
     21 N5          3.1744  -11.0315    0.2278 N.2       1 <0>        -0.3236
     22 N6          5.7909  -13.4161   -0.0892 N.pl3     1 <0>        -0.5528
     23 N7          7.1801  -13.2349   -0.0993 N.2       1 <0>        -0.2007
     24 C15         7.9699  -14.2626   -0.2261 C.2       1 <0>         0.1115
     25 C16         9.4228  -14.0732   -0.2366 C.ar      1 <0>        -0.0472
     26 C17        10.2821  -15.1600   -0.4999 C.ar      1 <0>        -0.0110
     27 C18         9.7708  -16.4439   -0.7571 C.ar      1 <0>        -0.1227
     28 C19        10.6270  -17.4704   -1.0077 C.ar      1 <0>        -0.0996
     29 C20        12.0085  -17.2852   -1.0165 C.ar      1 <0>        -0.1252
     30 C21        12.5662  -16.0704   -0.7753 C.ar      1 <0>        -0.0929
     31 C22        11.7330  -14.9626   -0.5091 C.ar      1 <0>        -0.0622
     32 C23        12.2742  -13.7010   -0.2582 C.ar      1 <0>        -0.0615
     33 C24        11.4312  -12.6202    0.0031 C.ar      1 <0>        -0.0582
     34 C25         9.9781  -12.8005    0.0105 C.ar      1 <0>        -0.0098
     35 C26         9.1581  -11.6891    0.2719 C.ar      1 <0>        -0.1233
     36 C27         9.7256  -10.4756    0.5062 C.ar      1 <0>        -0.1036
     37 C28        11.1083  -10.3002    0.4947 C.ar      1 <0>        -0.1108
     38 C29        11.9561  -11.3353    0.2600 C.ar      1 <0>        -0.1128
     39 H1          0.9276    1.8184    2.3618 H         1 <0>         0.0697
     40 H2          2.6723    2.0509    2.0966 H         1 <0>         0.0897
     41 H3          1.5521    2.0655    0.7134 H         1 <0>         0.0709
     42 H4          2.7685   -0.0909    0.8509 H         1 <0>         0.1117
     43 H5          2.1440   -0.3381    2.4993 H         1 <0>         0.1163
     44 H6          0.4870    1.1280   -0.3685 H         1 <0>         0.0992
     45 H7          1.2935   -0.3110   -1.0373 H         1 <0>         0.1115
     46 H8         -0.8471   -1.5585   -0.9344 H         1 <0>         0.0884
     47 H9         -1.6535   -0.1195   -0.2656 H         1 <0>         0.0619
     48 H10        -1.0110   -0.0889   -1.9253 H         1 <0>         0.0805
     49 H11         2.5371   -1.8315   -0.3472 H         1 <0>         0.0859
     50 H12         2.7516   -4.2822   -0.4201 H         1 <0>         0.1077
     51 H13        -0.6533   -4.6470    2.1410 H         1 <0>         0.0949
     52 H14        -0.8538   -2.1952    2.2147 H         1 <0>         0.0896
     53 H15         0.3884   -6.5712    0.8560 H         1 <0>         0.3964
     54 H16         2.0643   -8.5756    1.4147 H         1 <0>         0.1148
     55 H17         2.0174   -8.3864   -0.3546 H         1 <0>         0.1151
     56 H18         5.4173  -14.3070   -0.1768 H         1 <0>         0.3994
     57 H19         7.5540  -15.2546   -0.3236 H         1 <0>         0.1281
     58 H20         8.7044  -16.6142   -0.7553 H         1 <0>         0.1262
     59 H21        10.2265  -18.4539   -1.2044 H         1 <0>         0.1233
     60 H22        12.6515  -18.1287   -1.2200 H         1 <0>         0.1236
     61 H23        13.6397  -15.9529   -0.7872 H         1 <0>         0.1310
     62 H24        13.3451  -13.5614   -0.2660 H         1 <0>         0.1364
     63 H25         8.0838  -11.7982    0.2863 H         1 <0>         0.1839
     64 H26         9.0889   -9.6264    0.7059 H         1 <0>         0.1264
     65 H27        11.5162   -9.3185    0.6856 H         1 <0>         0.1226
     66 H28        13.0239  -11.1736    0.2567 H         1 <0>         0.1287
     67 H29        -0.0773   -0.2196    1.5559 H         1 <0>         0.3997
     68 H30         3.0406  -13.1465   -0.0011 H         1 <0>         0.4378
@<TRIPOS>BOND
     1    1    2 1
     2    1   39 1
     3    1   40 1
     4    1   41 1
     5    2    3 1
     6    2   42 1
     7    2   43 1
     8    3    4 1
     9    3    6 1
    10    3   67 1
    11    4    5 1
    12    4   44 1
    13    4   45 1
    14    5   46 1
    15    5   47 1
    16    5   48 1
    17    6   11 ar
    18    6    7 ar
    19    7    8 ar
    20    7   49 1
    21    8    9 ar
    22    8   50 1
    23    9   10 ar
    24    9   12 1
    25   10   11 ar
    26   10   51 1
    27   11   52 1
    28   12   13 am
    29   12   53 1
    30   13   14 2
    31   13   15 1
    32   15   16 1
    33   15   54 1
    34   15   55 1
    35   16   17 1
    36   17   21 2
    37   17   18 1
    38   18   19 2
    39   19   20 1
    40   19   22 1
    41   20   21 1
    42   20   68 1
    43   22   23 1
    44   22   56 1
    45   23   24 2
    46   24   25 1
    47   24   57 1
    48   25   34 ar
    49   25   26 ar
    50   26   31 ar
    51   26   27 ar
    52   27   28 ar
    53   27   58 1
    54   28   29 ar
    55   28   59 1
    56   29   30 ar
    57   29   60 1
    58   30   31 ar
    59   30   61 1
    60   31   32 ar
    61   32   33 ar
    62   32   62 1
    63   33   38 ar
    64   33   34 ar
    65   34   35 ar
    66   35   36 ar
    67   35   63 1
    68   36   37 ar
    69   36   64 1
    70   37   38 ar
    71   37   65 1
    72   38   66 1
@<TRIPOS>MOLECULE
ZINC05373341
   63    66     0     0     0
SMALL
USER_CHARGES
8-(1-butylaminoethyl)-6,8,10,11-tetrahydroxy-1-methoxy-9,10-dihydro-7H-tetracene-5,12-dione
@<TRIPOS>ATOM
      1 C1         -1.3272    0.9726    8.5591 C.3       1 <0>        -0.1597
      2 C2         -0.5189    0.5563    7.3286 C.3       1 <0>        -0.1206
      3 C3         -1.0000    1.3477    6.1108 C.3       1 <0>        -0.1512
      4 C4         -0.1917    0.9314    4.8802 C.3       1 <0>        -0.0088
      5 C5          0.1019    1.3170    2.5079 C.3       1 <0>         0.0494
      6 H1          0.3429    0.2546    2.5461 H         1 <0>         0.1517
      7 C6          1.3955    2.1315    2.4441 C.3       1 <0>        -0.1804
      8 C7         -0.7433    1.6038    1.2652 C.3       1 <0>         0.1192
      9 C8         -2.0782    0.8681    1.3676 C.3       1 <0>        -0.1214
     10 C9         -2.8331    0.9512    0.0657 C.ar      1 <0>        -0.0767
     11 C10        -2.2267    1.2833   -1.1195 C.ar      1 <0>        -0.0887
     12 C11        -2.9763    1.3321   -2.3024 C.ar      1 <0>         0.1891
     13 C12        -4.3404    1.0493   -2.2885 C.ar      1 <0>        -0.1307
     14 C13        -4.9643    0.7119   -1.0705 C.ar      1 <0>        -0.1208
     15 C14        -4.2045    0.6659    0.0970 C.ar      1 <0>         0.1502
     16 O1         -4.7974    0.3423    1.2729 O.3       1 <0>        -0.4723
     17 C15        -6.4059    0.4113   -1.0386 C.2       1 <0>         0.4365
     18 O2         -6.9441    0.1189    0.0117 O.2       1 <0>        -0.4064
     19 C16        -7.1967    0.4663   -2.2858 C.ar      1 <0>        -0.0879
     20 C17        -8.5590    0.1860   -2.2655 C.ar      1 <0>        -0.1029
     21 C18        -9.2960    0.2401   -3.4371 C.ar      1 <0>        -0.0530
     22 C19        -8.6901    0.5704   -4.6323 C.ar      1 <0>        -0.1866
     23 C20        -7.3287    0.8544   -4.6757 C.ar      1 <0>         0.1823
     24 C21        -6.5722    0.8037   -3.5009 C.ar      1 <0>        -0.1639
     25 C22        -5.1289    1.1020   -3.5322 C.2       1 <0>         0.4285
     26 O3         -4.5895    1.3908   -4.5834 O.2       1 <0>        -0.3900
     27 O4         -6.7381    1.1791   -5.8524 O.3       1 <0>        -0.2837
     28 C23        -7.5741    1.2108   -7.0109 C.3       1 <0>         0.0176
     29 O5         -2.3689    1.6578   -3.4704 O.3       1 <0>        -0.4608
     30 C24        -0.7581    1.6084   -1.2162 C.3       1 <0>         0.1569
     31 H2         -0.6342    2.6887   -1.2912 H         1 <0>         0.0835
     32 C25        -0.0115    1.1006    0.0152 C.3       1 <0>        -0.1783
     33 O6         -0.2150    0.9900   -2.3844 O.3       1 <0>        -0.5459
     34 O7         -0.9758    3.0094    1.1540 O.3       1 <0>        -0.5535
     35 H3         -1.1894    2.0384    8.7409 H         1 <0>         0.0596
     36 H4         -2.3837    0.7671    8.3865 H         1 <0>         0.0597
     37 H5         -0.9845    0.4088    9.4268 H         1 <0>         0.0669
     38 H6         -0.6568   -0.5096    7.1469 H         1 <0>         0.0732
     39 H7          0.5375    0.7618    7.5013 H         1 <0>         0.0734
     40 H8         -0.8621    2.4136    6.2925 H         1 <0>         0.0880
     41 H9         -2.0564    1.1422    5.9381 H         1 <0>         0.0874
     42 H10        -0.3295   -0.1345    4.6985 H         1 <0>         0.1309
     43 H11         0.8648    1.1369    5.0529 H         1 <0>         0.1323
     44 H12         1.9976    1.9271    3.3294 H         1 <0>         0.0835
     45 H13         1.9560    1.8537    1.5514 H         1 <0>         0.1065
     46 H14         1.1544    3.1938    2.4059 H         1 <0>         0.0944
     47 H15        -2.6768    1.3187    2.1593 H         1 <0>         0.0966
     48 H16        -1.8935   -0.1786    1.6095 H         1 <0>         0.1069
     49 H17        -4.7951   -0.6051    1.4669 H         1 <0>         0.3997
     50 H18        -9.0426   -0.0737   -1.3354 H         1 <0>         0.1469
     51 H19       -10.3535    0.0217   -3.4152 H         1 <0>         0.1452
     52 H20        -9.2760    0.6090   -5.5388 H         1 <0>         0.1466
     53 H21        -6.9780    1.4834   -7.8818 H         1 <0>         0.1100
     54 H22        -8.0164    0.2269   -7.1669 H         1 <0>         0.0620
     55 H23        -8.3656    1.9464   -6.8677 H         1 <0>         0.0620
     56 H24        -2.0883    0.8947   -3.9939 H         1 <0>         0.4081
     57 H25         0.0034    0.0107    0.0121 H         1 <0>         0.0996
     58 H26         1.0095    1.4819    0.0088 H         1 <0>         0.0989
     59 H27         0.7030    1.2330   -2.5673 H         1 <0>         0.3927
     60 H28        -1.5140    3.2598    0.3906 H         1 <0>         0.4028
     61 N1         -0.6614    1.6985    3.7111 N.4       1 <0>        -0.5195
     62 H29        -0.5327    2.7013    3.8901 H         1 <0>         0.4370
     63 H30        -1.6576    1.5036    3.5562 H         1 <0>         0.4278
@<TRIPOS>BOND
     1    1    2 1
     2    1   35 1
     3    1   36 1
     4    1   37 1
     5    2    3 1
     6    2   38 1
     7    2   39 1
     8    3    4 1
     9    3   40 1
    10    3   41 1
    11    4   42 1
    12    4   43 1
    13    4   61 1
    14    5    6 1
    15    5    7 1
    16    5    8 1
    17    5   61 1
    18    7   44 1
    19    7   45 1
    20    7   46 1
    21    8   32 1
    22    8    9 1
    23    8   34 1
    24    9   10 1
    25    9   47 1
    26    9   48 1
    27   10   15 ar
    28   10   11 ar
    29   11   12 ar
    30   11   30 1
    31   12   13 ar
    32   12   29 1
    33   13   25 1
    34   13   14 ar
    35   14   15 ar
    36   14   17 1
    37   15   16 1
    38   16   49 1
    39   17   18 2
    40   17   19 1
    41   19   24 ar
    42   19   20 ar
    43   20   21 ar
    44   20   50 1
    45   21   22 ar
    46   21   51 1
    47   22   23 ar
    48   22   52 1
    49   23   24 ar
    50   23   27 1
    51   24   25 1
    52   25   26 2
    53   27   28 1
    54   28   53 1
    55   28   54 1
    56   28   55 1
    57   29   56 1
    58   30   31 1
    59   30   32 1
    60   30   33 1
    61   32   57 1
    62   32   58 1
    63   33   59 1
    64   34   60 1
    65   61   62 1
    66   61   63 1
@<TRIPOS>MOLECULE
ZINC08964833
   48    51     0     0     0
SMALL
USER_CHARGES
(2R,3S,4S,5S)-2-[6-amino-8-[(N'E)-N'-[(3-hydroxyphenyl)methylene]hydrazino]purin-9-yl]-5-(hydroxymethyl)tetrahydrofuran-3,4-diol
@<TRIPOS>ATOM
      1 C1         -1.1907    1.7747   -0.3994 C.ar      1 <0>        -0.1062
      2 C2         -1.2244    3.1520   -0.3245 C.ar      1 <0>        -0.0864
      3 C3         -0.0340    3.8820   -0.3635 C.ar      1 <0>        -0.0348
      4 C4          1.1862    3.2119   -0.4731 C.ar      1 <0>        -0.1178
      5 C5          1.2077    1.8296   -0.5422 C.ar      1 <0>         0.1006
      6 C6          0.0189    1.1128   -0.5022 C.ar      1 <0>        -0.1290
      7 O1          2.3931    1.1734   -0.6489 O.3       1 <0>        -0.4979
      8 C7         -0.0657    5.3544   -0.2888 C.2       1 <0>         0.0978
      9 N1         -1.2014    5.9748   -0.1870 N.2       1 <0>        -0.1889
     10 N2         -1.2316    7.3736   -0.1160 N.pl3     1 <0>        -0.5499
     11 C8         -2.4394    8.0334   -0.0077 C.2       1 <0>         0.5595
     12 N3         -3.6177    7.4636   -0.0667 N.2       1 <0>        -0.4635
     13 C9         -4.5815    8.4064    0.0770 C.ar      1 <0>        -0.0402
     14 C10        -5.9861    8.3840    0.0969 C.ar      1 <0>         0.4348
     15 N4         -6.6357    9.5313    0.2636 N.ar      1 <0>        -0.5695
     16 C11        -5.9843   10.6709    0.4085 C.ar      1 <0>         0.3333
     17 N5         -4.6695   10.7393    0.3967 N.ar      1 <0>        -0.5273
     18 C12        -3.9356    9.6435    0.2354 C.ar      1 <0>         0.3224
     19 N6         -2.5866    9.3805    0.1833 N.pl3     1 <0>        -0.4819
     20 C13        -1.5062   10.3622    0.3072 C.3       1 <0>         0.3060
     21 H1         -0.5558    9.8500    0.4577 H         1 <0>         0.1330
     22 C14        -1.4408   11.2324   -0.9628 C.3       1 <0>         0.0772
     23 H2         -0.4459   11.1868   -1.4057 H         1 <0>         0.0990
     24 C15        -1.7439   12.6641   -0.4578 C.3       1 <0>         0.0489
     25 H3         -2.3994   13.1907   -1.1514 H         1 <0>         0.0909
     26 C16        -2.4669   12.3884    0.8852 C.3       1 <0>         0.0120
     27 H4         -3.5180   12.1542    0.7170 H         1 <0>         0.1558
     28 O2         -1.7686   11.2407    1.4142 O.3       1 <0>        -0.3343
     29 C17        -2.3275   13.5855    1.8278 C.3       1 <0>         0.0800
     30 O3         -3.0121   13.3103    3.0516 O.3       1 <0>        -0.5577
     31 O4         -0.5353   13.3965   -0.2453 O.3       1 <0>        -0.5523
     32 O5         -2.4294   10.8152   -1.9065 O.3       1 <0>        -0.5351
     33 N7         -6.6781    7.1934   -0.0542 N.pl3     1 <0>        -0.7437
     34 H5         -2.1118    1.2115   -0.3733 H         1 <0>         0.1330
     35 H6         -2.1708    3.6656   -0.2401 H         1 <0>         0.1411
     36 H7          2.1102    3.7703   -0.5034 H         1 <0>         0.1340
     37 H8          0.0390    0.0344   -0.5560 H         1 <0>         0.1313
     38 H9          2.6806    1.0264   -1.5604 H         1 <0>         0.3921
     39 H10         0.8559    5.9167   -0.3188 H         1 <0>         0.1230
     40 H11        -0.4039    7.8786   -0.1430 H         1 <0>         0.3948
     41 H12        -6.5511   11.5804    0.5421 H         1 <0>         0.2022
     42 H13        -1.2723   13.7646    2.0341 H         1 <0>         0.0554
     43 H14        -2.7613   14.4690    1.3596 H         1 <0>         0.0625
     44 H15        -2.9656   14.0278    3.6982 H         1 <0>         0.3819
     45 H16        -0.6680   14.2666    0.1551 H         1 <0>         0.3859
     46 H17        -2.4331   11.3293   -2.7255 H         1 <0>         0.3893
     47 H18        -6.4495    6.7848   -0.9378 H         1 <0>         0.3673
     48 H19        -7.6479    7.1908   -0.0387 H         1 <0>         0.3711
@<TRIPOS>BOND
     1    1    6 ar
     2    1    2 ar
     3    1   34 1
     4    2    3 ar
     5    2   35 1
     6    3    4 ar
     7    3    8 1
     8    4    5 ar
     9    4   36 1
    10    5    6 ar
    11    5    7 1
    12    6   37 1
    13    7   38 1
    14    8    9 2
    15    8   39 1
    16    9   10 1
    17   10   11 1
    18   10   40 1
    19   11   19 1
    20   11   12 2
    21   12   13 1
    22   13   18 ar
    23   13   14 ar
    24   14   15 ar
    25   14   33 1
    26   15   16 ar
    27   16   17 ar
    28   16   41 1
    29   17   18 ar
    30   18   19 1
    31   19   20 1
    32   20   21 1
    33   20   28 1
    34   20   22 1
    35   22   23 1
    36   22   24 1
    37   22   32 1
    38   24   25 1
    39   24   26 1
    40   24   31 1
    41   26   27 1
    42   26   28 1
    43   26   29 1
    44   29   30 1
    45   29   42 1
    46   29   43 1
    47   30   44 1
    48   31   45 1
    49   32   46 1
    50   33   47 1
    51   33   48 1
@<TRIPOS>MOLECULE
ZINC34889520
   54    58     0     0     0
SMALL
USER_CHARGES

@<TRIPOS>ATOM
      1 C1         -0.0130    1.3837    0.0736 C.ar      1 <0>        -0.1238
      2 C2          0.1248    0.1892    0.7574 C.ar      1 <0>        -0.1162
      3 C3          1.3277   -0.4871    0.7347 C.ar      1 <0>        -0.1141
      4 C4          2.4046    0.0356    0.0211 C.ar      1 <0>        -0.0362
      5 C5          2.2600    1.2395   -0.6659 C.ar      1 <0>        -0.1156
      6 C6          1.0526    1.9072   -0.6362 C.ar      1 <0>        -0.1174
      7 C7          3.7001   -0.6864   -0.0066 C.ar      1 <0>        -0.0727
      8 C8          3.8414   -1.8932    0.6770 C.ar      1 <0>        -0.0797
      9 C9          5.0461   -2.5626    0.6500 C.ar      1 <0>        -0.1215
     10 C10         6.1198   -2.0350   -0.0583 C.ar      1 <0>         0.1827
     11 C11         5.9812   -0.8315   -0.7402 C.ar      1 <0>        -0.1538
     12 C12         4.7764   -0.1620   -0.7209 C.ar      1 <0>        -0.0831
     13 N1          7.3396   -2.7148   -0.0843 N.pl3     1 <0>        -0.6361
     14 C13         7.3643   -4.0954    0.0068 C.2       1 <0>         0.4973
     15 N2          6.3095   -4.8699    0.0122 N.2       1 <0>        -0.4507
     16 C14         6.7055   -6.1657    0.1132 C.2       1 <0>        -0.1162
     17 C15         8.1023   -6.1722    0.1729 C.2       1 <0>         0.3089
     18 N3          8.4961   -4.8597    0.0990 N.pl3     1 <0>        -0.4666
     19 C16         9.8755   -4.3666    0.1183 C.3       1 <0>         0.3033
     20 H1         10.5504   -5.1462    0.4715 H         1 <0>         0.1259
     21 C17        10.2963   -3.8906   -1.2949 C.3       1 <0>        -0.1990
     22 C18        11.4176   -2.8756   -0.9424 C.3       1 <0>         0.0810
     23 H2         11.5005   -2.1068   -1.7106 H         1 <0>         0.0953
     24 C19        10.9090   -2.2734    0.3850 C.3       1 <0>         0.0898
     25 H3         10.4134   -1.3217    0.1934 H         1 <0>         0.1069
     26 O1          9.9772   -3.2027    0.9541 O.3       1 <0>        -0.3601
     27 C20        12.0831   -2.0633    1.3432 C.3       1 <0>         0.0779
     28 O2         11.6230   -1.3997    2.5222 O.3       1 <0>        -0.5691
     29 O3         12.6676   -3.5428   -0.7570 O.3       1 <0>        -0.5513
     30 N4          8.7562   -7.3352    0.2768 N.2       1 <0>        -0.5770
     31 H4          6.2981   -9.3938    0.3072 H         1 <0>         0.4202
     32 C21         8.1075   -8.4773    0.3240 C.2       1 <0>         0.6512
     33 N5          6.7468   -8.5346    0.2700 N.am      1 <0>        -0.6539
     34 C22         6.0200   -7.4003    0.1646 C.2       1 <0>         0.5926
     35 O4          4.8020   -7.4411    0.1154 O.2       1 <0>        -0.5059
     36 N6          8.8209   -9.6458    0.4304 N.pl3     1 <0>        -0.8192
     37 H5         -0.9574    1.9073    0.0904 H         1 <0>         0.1212
     38 H6         -0.7103   -0.2148    1.3104 H         1 <0>         0.1232
     39 H7          1.4343   -1.4195    1.2693 H         1 <0>         0.1256
     40 H8          3.0914    1.6493   -1.2202 H         1 <0>         0.1241
     41 H9          0.9393    2.8401   -1.1686 H         1 <0>         0.1226
     42 H10         3.0076   -2.3032    1.2276 H         1 <0>         0.1280
     43 H11         5.1561   -3.4973    1.1797 H         1 <0>         0.1425
     44 H12         6.8167   -0.4232   -1.2895 H         1 <0>         0.1241
     45 H13         4.6675    0.7703   -1.2551 H         1 <0>         0.1284
     46 H14         8.1694   -2.2192   -0.1663 H         1 <0>         0.4169
     47 H15        10.6871   -4.7176   -1.8878 H         1 <0>         0.1076
     48 H16         9.4686   -3.3996   -1.8067 H         1 <0>         0.0973
     49 H17        12.5093   -3.0296    1.6130 H         1 <0>         0.0619
     50 H18        12.8445   -1.4535    0.8568 H         1 <0>         0.0637
     51 H19        12.3159   -1.2334    3.1758 H         1 <0>         0.3834
     52 H20        12.9846   -4.0097   -1.5423 H         1 <0>         0.3896
     53 H21         8.3559  -10.4963    0.4663 H         1 <0>         0.4176
     54 H22         9.7897   -9.6207    0.4696 H         1 <0>         0.4287
@<TRIPOS>BOND
     1    1    6 ar
     2    1    2 ar
     3    1   37 1
     4    2    3 ar
     5    2   38 1
     6    3    4 ar
     7    3   39 1
     8    4    5 ar
     9    4    7 1
    10    5    6 ar
    11    5   40 1
    12    6   41 1
    13    7   12 ar
    14    7    8 ar
    15    8    9 ar
    16    8   42 1
    17    9   10 ar
    18    9   43 1
    19   10   11 ar
    20   10   13 1
    21   11   12 ar
    22   11   44 1
    23   12   45 1
    24   13   14 1
    25   13   46 1
    26   14   18 1
    27   14   15 2
    28   15   16 1
    29   16   17 2
    30   16   34 1
    31   17   18 1
    32   17   30 1
    33   18   19 1
    34   19   20 1
    35   19   26 1
    36   19   21 1
    37   21   22 1
    38   21   47 1
    39   21   48 1
    40   22   23 1
    41   22   24 1
    42   22   29 1
    43   24   25 1
    44   24   26 1
    45   24   27 1
    46   27   28 1
    47   27   49 1
    48   27   50 1
    49   28   51 1
    50   29   52 1
    51   30   32 2
    52   31   33 1
    53   32   33 1
    54   32   36 1
    55   33   34 am
    56   34   35 2
    57   36   54 1
    58   36   53 1
@<TRIPOS>MOLECULE
ZINC40703255
   57    59     0     0     0
SMALL
USER_CHARGES

@<TRIPOS>ATOM
      1 C1          0.2214    0.8498    0.4814 C.3       1 <0>        -0.1152
      2 C2          0.8699   -0.5065    0.5859 C.ar      1 <0>        -0.1106
      3 C3          1.2013   -1.2044   -0.5591 C.ar      1 <0>        -0.0881
      4 C4          1.7967   -2.4497   -0.4639 C.ar      1 <0>        -0.0504
      5 C5          2.0620   -2.9997    0.7782 C.ar      1 <0>        -0.0929
      6 C6          1.7333   -2.3064    1.9262 C.ar      1 <0>        -0.1069
      7 C7          1.1402   -1.0535    1.8336 C.ar      1 <0>         0.1653
      8 N1          0.8112   -0.3468    2.9942 N.pl3     1 <0>        -0.6478
      9 C8          0.5242   -1.0338    4.1685 C.ar      1 <0>         0.3943
     10 C9          0.3188   -0.3409    5.3630 C.ar      1 <0>         0.0127
     11 C10         0.0333   -1.0794    6.5127 C.ar      1 <0>         0.3963
     12 N2         -0.0319   -2.4060    6.4271 N.ar      1 <0>        -0.5704
     13 C11         0.1686   -3.0213    5.2793 C.ar      1 <0>         0.3247
     14 N3          0.4355   -2.3618    4.1702 N.ar      1 <0>        -0.5508
     15 N4         -0.1792   -0.4394    7.7279 N.pl3     1 <0>        -0.7176
     16 C12        -0.4789   -1.2275    8.9303 C.3       1 <0>         0.1581
     17 C13        -1.9864   -1.4774    9.0043 C.3       1 <0>        -0.1423
     18 C14        -2.3162   -2.2867   10.2581 C.3       1 <0>         0.0594
     19 N5         -1.7937   -1.6644   11.4655 N.4       1 <0>        -0.4911
     20 C15        -0.4176   -1.1952   11.4423 C.3       1 <0>         0.0639
     21 C16        -0.0627   -0.4349   10.1688 C.3       1 <0>        -0.1428
     22 C17         0.5750   -2.3401   11.6605 C.3       1 <0>        -0.1752
     23 C18        -0.2416   -0.2141   12.6261 C.3       1 <0>        -0.1807
     24 C19        -1.8343   -3.7283   10.0987 C.3       1 <0>        -0.1690
     25 C20        -3.8566   -2.3295   10.3839 C.3       1 <0>        -0.1796
     26 N6          0.3978    1.0604    5.4069 N.pl3     1 <0>        -0.8747
     27 Cl1         2.2113   -3.3242   -1.9051 Cl        1 <0>        -0.0672
     28 H1          0.9924    1.6197    0.4495 H         1 <0>         0.0740
     29 H2         -0.3772    0.8972   -0.4282 H         1 <0>         0.0770
     30 H3         -0.4199    1.0136    1.3474 H         1 <0>         0.0614
     31 H4          0.9950   -0.7777   -1.5296 H         1 <0>         0.1369
     32 H5          2.5262   -3.9722    0.8496 H         1 <0>         0.1361
     33 H6          1.9406   -2.7360    2.8951 H         1 <0>         0.1515
     34 H7          0.7831    0.6227    2.9802 H         1 <0>         0.4150
     35 H8          0.1085   -4.0991    5.2457 H         1 <0>         0.1990
     36 H9         -0.1296    0.5278    7.7819 H         1 <0>         0.4063
     37 H10         0.0625   -2.1679    8.8805 H         1 <0>         0.1105
     38 H11        -2.5124   -0.5221    9.0385 H         1 <0>         0.0858
     39 H12        -2.3063   -2.0311    8.1199 H         1 <0>         0.1146
     40 H13        -2.3987   -0.8755   11.7072 H         1 <0>         0.4237
     41 H14         1.0155   -0.2576   10.1393 H         1 <0>         0.1142
     42 H15        -0.5745    0.5312   10.1681 H         1 <0>         0.0917
     43 H16         0.5032   -3.0459   10.8329 H         1 <0>         0.0846
     44 H17         1.5874   -1.9390   11.7091 H         1 <0>         0.1044
     45 H18         0.3412   -2.8506   12.5947 H         1 <0>         0.0831
     46 H19        -0.4519   -0.7322   13.5617 H         1 <0>         0.0846
     47 H20         0.7825    0.1590   12.6396 H         1 <0>         0.1064
     48 H21        -0.9314    0.6219   12.5107 H         1 <0>         0.0810
     49 H22        -0.7971   -3.7297    9.7635 H         1 <0>         0.0864
     50 H23        -1.9074   -4.2438   11.0563 H         1 <0>         0.0784
     51 H24        -2.4547   -4.2394    9.3625 H         1 <0>         0.1053
     52 H25        -4.2804   -2.8043    9.4990 H         1 <0>         0.1061
     53 H26        -4.1330   -2.9006   11.2703 H         1 <0>         0.0829
     54 H27        -4.2424   -1.3138   10.4712 H         1 <0>         0.0794
     55 H28         0.5974    1.5604    4.6000 H         1 <0>         0.3979
     56 H29         0.2528    1.5284    6.2441 H         1 <0>         0.3950
     57 H30        -1.8955   -2.3270   12.2383 H         1 <0>         0.4257
@<TRIPOS>BOND
     1    1    2 1
     2    1   28 1
     3    1   29 1
     4    1   30 1
     5    2    7 ar
     6    2    3 ar
     7    3    4 ar
     8    3   31 1
     9    4    5 ar
    10    4   27 1
    11    5    6 ar
    12    5   32 1
    13    6    7 ar
    14    6   33 1
    15    7    8 1
    16    8    9 1
    17    8   34 1
    18    9   14 ar
    19    9   10 ar
    20   10   11 ar
    21   10   26 1
    22   11   12 ar
    23   11   15 1
    24   12   13 ar
    25   13   14 ar
    26   13   35 1
    27   15   16 1
    28   15   36 1
    29   16   21 1
    30   16   17 1
    31   16   37 1
    32   17   18 1
    33   17   38 1
    34   17   39 1
    35   18   19 1
    36   18   24 1
    37   18   25 1
    38   19   20 1
    39   19   40 1
    40   19   57 1
    41   20   21 1
    42   20   22 1
    43   20   23 1
    44   21   41 1
    45   21   42 1
    46   22   43 1
    47   22   44 1
    48   22   45 1
    49   23   46 1
    50   23   47 1
    51   23   48 1
    52   24   49 1
    53   24   50 1
    54   24   51 1
    55   25   52 1
    56   25   53 1
    57   25   54 1
    58   26   55 1
    59   26   56 1
@<TRIPOS>MOLECULE
ZINC58307102
   56    57     0     0     0
SMALL
USER_CHARGES

@<TRIPOS>ATOM
      1 C1          1.2064    1.2355   -0.1716 C.3       1 <0>        -0.1251
      2 C2          0.5774   -0.1312   -0.0844 C.ar      1 <0>        -0.0798
      3 C3         -0.0268   -0.6858   -1.1979 C.ar      1 <0>        -0.0167
      4 C4         -0.6046   -1.9396   -1.1222 C.ar      1 <0>        -0.6581
      5 C5         -0.5800   -2.6424    0.0668 C.ar      1 <0>        -0.0283
      6 C6          0.0259   -2.0883    1.1866 C.ar      1 <0>         0.1067
      7 C7          0.6100   -0.8308    1.1058 C.ar      1 <0>        -0.0435
      8 C8          1.2737   -0.2281    2.3171 C.3       1 <0>        -0.1324
      9 N1          0.0521   -2.7974    2.3926 N.am      1 <0>        -0.6401
     10 C9         -0.0314   -4.1425    2.3854 C.2       1 <0>         0.4996
     11 O1         -0.0283   -4.7447    1.3326 O.2       1 <0>        -0.5060
     12 C10        -0.1286   -4.8984    3.6855 C.3       1 <0>        -0.0293
     13 N2         -0.2077   -6.3391    3.4096 N.4       1 <0>        -0.3689
     14 C11        -1.4522   -6.6299    2.6876 C.3       1 <0>        -0.0229
     15 C12        -1.5014   -8.1160    2.3265 C.3       1 <0>        -0.1405
     16 C13        -1.4473   -8.9497    3.6100 C.3       1 <0>        -0.1384
     17 C14        -0.1821   -8.5840    4.3915 C.3       1 <0>        -0.1080
     18 H1          0.6974   -8.8431    3.8021 H         1 <0>         0.0978
     19 C15        -0.1817   -7.0805    4.6761 C.3       1 <0>        -0.0050
     20 C16        -0.1570   -9.3550    5.7128 C.3       1 <0>        -0.0989
     21 C17        -0.0367  -10.8532    5.4268 C.3       1 <0>        -0.1452
     22 C18        -0.0120  -11.6126    6.7283 C.2       1 <0>         0.5138
     23 O2         -0.0836  -11.0144    7.7809 O.2       1 <0>        -0.5433
     24 N3          0.0897  -12.9565    6.7224 N.am      1 <0>        -0.8542
     25 S1         -1.3737   -2.6416   -2.5436 S.o2      1 <0>         2.7021
     26 O3         -2.3173   -3.5914   -2.0674 O.2       1 <0>        -0.9614
     27 O4         -1.7426   -1.5563   -3.3834 O.2       1 <0>        -0.9537
     28 N4         -0.2117   -3.4959   -3.3573 N.pl3     1 <0>        -1.2479
     29 H2          2.2505    1.1367   -0.4688 H         1 <0>         0.0819
     30 H3          0.6735    1.8343   -0.9102 H         1 <0>         0.0802
     31 H4          1.1503    1.7240    0.8012 H         1 <0>         0.0768
     32 H5         -0.0477   -0.1383   -2.1286 H         1 <0>         0.1517
     33 H6         -1.0318   -3.6216    0.1254 H         1 <0>         0.1620
     34 H7          0.5412    0.3453    2.8852 H         1 <0>         0.0875
     35 H8          1.6776   -1.0234    2.9435 H         1 <0>         0.0675
     36 H9          2.0824    0.4298    1.9987 H         1 <0>         0.0894
     37 H10         0.1304   -2.3208    3.2338 H         1 <0>         0.4226
     38 H11         0.7532   -4.6925    4.2923 H         1 <0>         0.1648
     39 H12        -1.0220   -4.5820    4.2238 H         1 <0>         0.1652
     40 H13        -2.3048   -6.3815    3.3196 H         1 <0>         0.1274
     41 H14        -1.4907   -6.0335    1.7761 H         1 <0>         0.1473
     42 H15        -2.4270   -8.3303    1.7921 H         1 <0>         0.1147
     43 H16        -0.6493   -8.3654    1.6943 H         1 <0>         0.0895
     44 H17        -2.3260   -8.7382    4.2193 H         1 <0>         0.0848
     45 H18        -1.4251  -10.0094    3.3557 H         1 <0>         0.0963
     46 H19         0.7176   -6.8167    5.2326 H         1 <0>         0.1343
     47 H20        -1.0615   -6.8225    5.2657 H         1 <0>         0.1343
     48 H21         0.6962   -9.0289    6.3076 H         1 <0>         0.0840
     49 H22        -1.0781   -9.1630    6.2631 H         1 <0>         0.0845
     50 H23        -0.8900  -11.1792    4.8320 H         1 <0>         0.1003
     51 H24         0.8844  -11.0452    4.8766 H         1 <0>         0.0991
     52 H25         0.1469  -13.4349    5.8806 H         1 <0>         0.4039
     53 H26         0.1056  -13.4453    7.5601 H         1 <0>         0.4070
     54 H27         0.6949   -3.5300   -3.0140 H         1 <0>         0.4167
     55 H28        -0.4376   -3.9623   -4.1773 H         1 <0>         0.4244
     56 H29         0.5800   -6.6157    2.8429 H         1 <0>         0.4297
@<TRIPOS>BOND
     1    1    2 1
     2    1   29 1
     3    1   30 1
     4    1   31 1
     5    2    7 ar
     6    2    3 ar
     7    3    4 ar
     8    3   32 1
     9    4    5 ar
    10    4   25 1
    11    5    6 ar
    12    5   33 1
    13    6    7 ar
    14    6    9 1
    15    7    8 1
    16    8   34 1
    17    8   35 1
    18    8   36 1
    19    9   10 am
    20    9   37 1
    21   10   11 2
    22   10   12 1
    23   12   13 1
    24   12   38 1
    25   12   39 1
    26   13   19 1
    27   13   14 1
    28   13   56 1
    29   14   15 1
    30   14   40 1
    31   14   41 1
    32   15   16 1
    33   15   42 1
    34   15   43 1
    35   16   17 1
    36   16   44 1
    37   16   45 1
    38   17   18 1
    39   17   19 1
    40   17   20 1
    41   19   46 1
    42   19   47 1
    43   20   21 1
    44   20   48 1
    45   20   49 1
    46   21   22 1
    47   21   50 1
    48   21   51 1
    49   22   23 2
    50   22   24 am
    51   24   52 1
    52   24   53 1
    53   25   26 2
    54   25   27 2
    55   25   28 1
    56   28   54 1
    57   28   55 1
@<TRIPOS>MOLECULE
ZINC16978074
   69    73     0     0     0
SMALL
USER_CHARGES
4-[[4-[(E)-2-(4-chlorophenyl)vinyl]pyrimidin-2-yl]amino]-2,6-bis(pyrrolidin-1-ylmethyl)phenol
@<TRIPOS>ATOM
      1 C1          5.7343    4.0243    1.4180 C.ar      1 <0>        -0.0863
      2 C2          6.9101    4.7437    1.3899 C.ar      1 <0>        -0.1113
      3 C3          6.9986    5.9030    0.6370 C.ar      1 <0>        -0.0187
      4 C4          5.9100    6.3445   -0.0969 C.ar      1 <0>        -0.1124
      5 C5          4.7299    5.6316   -0.0823 C.ar      1 <0>        -0.0793
      6 C6          4.6337    4.4609    0.6753 C.ar      1 <0>        -0.0872
      7 C7          3.3759    3.6940    0.6956 C.2       1 <0>        -0.0095
      8 C8          3.2867    2.5690    1.4249 C.2       1 <0>        -0.1603
      9 C9          2.0299    1.8026    1.4452 C.ar      1 <0>         0.2679
     10 C10         1.9242    0.6273    2.2021 C.ar      1 <0>        -0.2479
     11 C11         0.7236   -0.0572    2.1897 C.ar      1 <0>         0.1859
     12 N1         -0.2835    0.4128    1.4694 N.ar      1 <0>        -0.5781
     13 C12        -0.1574    1.5268    0.7623 C.ar      1 <0>         0.5486
     14 N2          0.9726    2.2153    0.7439 N.ar      1 <0>        -0.5536
     15 N3         -1.2348    1.9790    0.0186 N.pl3     1 <0>        -0.6410
     16 C13        -2.3973    1.2036   -0.0728 C.ar      1 <0>         0.1984
     17 C14        -2.3093   -0.1822   -0.0787 C.ar      1 <0>        -0.0541
     18 C15        -3.4566   -0.9462   -0.1636 C.ar      1 <0>        -0.1438
     19 C16        -4.6958   -0.3295   -0.2540 C.ar      1 <0>         0.1145
     20 C17        -4.7842    1.0548   -0.2535 C.ar      1 <0>        -0.1416
     21 C18        -3.6383    1.8202   -0.1634 C.ar      1 <0>        -0.0936
     22 C19        -6.1310    1.7237   -0.3518 C.3       1 <0>         0.0567
     23 C20        -5.8791    2.2910    2.0025 C.3       1 <0>        -0.0061
     24 C21        -6.8550    2.6893    3.1380 C.3       1 <0>        -0.1475
     25 C22        -8.0906    3.2068    2.3663 C.3       1 <0>        -0.1476
     26 C23        -7.9869    2.5703    0.9679 C.3       1 <0>        -0.0109
     27 O1         -5.8247   -1.0825   -0.3428 O.3       1 <0>        -0.4961
     28 C24        -3.3617   -2.4502   -0.1647 C.3       1 <0>         0.0533
     29 C25        -2.4890   -2.2662   -2.4303 C.3       1 <0>        -0.0079
     30 C26        -2.3685   -3.2346   -3.6337 C.3       1 <0>        -0.1474
     31 C27        -2.4439   -4.6269   -2.9660 C.3       1 <0>        -0.1479
     32 C28        -3.1419   -4.3875   -1.6143 C.3       1 <0>        -0.0106
     33 Cl1         8.4805    6.8070    0.6135 Cl        1 <0>        -0.0528
     34 H1          5.6652    3.1230    2.0090 H         1 <0>         0.1370
     35 H2          7.7627    4.4050    1.9598 H         1 <0>         0.1411
     36 H3          5.9856    7.2494   -0.6815 H         1 <0>         0.1409
     37 H4          3.8817    5.9771   -0.6547 H         1 <0>         0.1368
     38 H5          2.5256    4.0359    0.1243 H         1 <0>         0.1364
     39 H6          4.1371    2.2270    1.9962 H         1 <0>         0.1448
     40 H7          2.7609    0.2656    2.7814 H         1 <0>         0.1576
     41 H8          0.6080   -0.9662    2.7612 H         1 <0>         0.1767
     42 H9         -1.1841    2.8329   -0.4389 H         1 <0>         0.4327
     43 H10        -1.3442   -0.6624   -0.0132 H         1 <0>         0.1578
     44 H11        -3.7072    2.8979   -0.1630 H         1 <0>         0.1491
     45 H12        -6.0022    2.7520   -0.6896 H         1 <0>         0.1383
     46 H13        -6.7543    1.1827   -1.0638 H         1 <0>         0.1391
     47 H14        -5.1682    1.5420    2.3514 H         1 <0>         0.1319
     48 H15        -5.3581    3.1677    1.6178 H         1 <0>         0.1307
     49 H16        -6.4270    3.4793    3.7551 H         1 <0>         0.1172
     50 H17        -7.1149    1.8222    3.7452 H         1 <0>         0.0987
     51 H18        -8.0613    4.2938    2.2903 H         1 <0>         0.1056
     52 H19        -9.0073    2.8860    2.8610 H         1 <0>         0.1076
     53 H20        -7.8930    3.3494    0.2114 H         1 <0>         0.1325
     54 H21        -8.8695    1.9618    0.7705 H         1 <0>         0.1356
     55 H22        -6.0850   -1.2957   -1.2493 H         1 <0>         0.3988
     56 H23        -2.4044   -2.7542    0.2586 H         1 <0>         0.1397
     57 H24        -4.1722   -2.8658    0.4340 H         1 <0>         0.1471
     58 H25        -2.8708   -1.2975   -2.7527 H         1 <0>         0.1313
     59 H26        -1.5278   -2.1545   -1.9286 H         1 <0>         0.1318
     60 H27        -1.4132   -3.1017   -4.1416 H         1 <0>         0.1177
     61 H28        -3.1979   -3.0938   -4.3267 H         1 <0>         0.0989
     62 H29        -1.4418   -5.0259   -2.8088 H         1 <0>         0.1059
     63 H30        -3.0318   -5.3094   -3.5797 H         1 <0>         0.1083
     64 H31        -2.4724   -4.6576   -0.7977 H         1 <0>         0.1340
     65 H32        -4.0565   -4.9778   -1.5590 H         1 <0>         0.1370
     66 N4         -6.7880    1.7312    0.9899 N.4       1 <0>        -0.3917
     67 H33        -7.0422    0.7698    1.2456 H         1 <0>         0.4323
     68 N5         -3.4575   -2.9591   -1.5660 N.4       1 <0>        -0.3931
     69 H34        -4.4097   -2.8023   -1.9167 H         1 <0>         0.4224
@<TRIPOS>BOND
     1    1    6 ar
     2    1    2 ar
     3    1   34 1
     4    2    3 ar
     5    2   35 1
     6    3    4 ar
     7    3   33 1
     8    4    5 ar
     9    4   36 1
    10    5    6 ar
    11    5   37 1
    12    6    7 1
    13    7    8 2
    14    7   38 1
    15    8    9 1
    16    8   39 1
    17    9   14 ar
    18    9   10 ar
    19   10   11 ar
    20   10   40 1
    21   11   12 ar
    22   11   41 1
    23   12   13 ar
    24   13   14 ar
    25   13   15 1
    26   15   16 1
    27   15   42 1
    28   16   21 ar
    29   16   17 ar
    30   17   18 ar
    31   17   43 1
    32   18   19 ar
    33   18   28 1
    34   19   20 ar
    35   19   27 1
    36   20   21 ar
    37   20   22 1
    38   21   44 1
    39   22   45 1
    40   22   46 1
    41   22   66 1
    42   23   24 1
    43   23   47 1
    44   23   48 1
    45   23   66 1
    46   24   25 1
    47   24   49 1
    48   24   50 1
    49   25   26 1
    50   25   51 1
    51   25   52 1
    52   26   53 1
    53   26   54 1
    54   26   66 1
    55   27   55 1
    56   28   56 1
    57   28   57 1
    58   28   68 1
    59   29   30 1
    60   29   58 1
    61   29   59 1
    62   29   68 1
    63   30   31 1
    64   30   60 1
    65   30   61 1
    66   31   32 1
    67   31   62 1
    68   31   63 1
    69   32   64 1
    70   32   65 1
    71   32   68 1
    72   66   67 1
    73   68   69 1
@<TRIPOS>MOLECULE
ZINC39674745
   68    72     0     0     0
SMALL
USER_CHARGES

@<TRIPOS>ATOM
      1 C1          6.6249    2.9783   -2.8078 C.3       1 <0>        -0.1570
      2 C2          5.2790    2.8061   -2.1009 C.3       1 <0>         0.0936
      3 H1          4.7344    3.7502   -2.0956 H         1 <0>         0.1814
      4 C3          4.4617    1.7369   -2.7898 C.2       1 <0>         0.0786
      5 C4          4.2488    0.7700   -1.8611 C.ar      1 <0>        -0.1598
      6 C5          3.5527   -0.4657   -1.9230 C.ar      1 <0>        -0.0101
      7 C6          3.4858   -1.2764   -0.8136 C.ar      1 <0>        -0.0118
      8 C7          4.1209   -0.8945    0.4430 C.ar      1 <0>         0.0557
      9 C8          4.7961    0.2675    0.5604 C.ar      1 <0>        -0.1753
     10 C9          4.8970    1.1695   -0.5925 C.ar      1 <0>         0.3410
     11 N1          5.4860    2.3343   -0.7278 N.pl3     1 <0>        -0.5675
     12 C10         2.7794   -2.5195   -0.8939 C.1       1 <0>         0.2168
     13 N2          2.2191   -3.5056   -0.9577 N.1       1 <0>        -0.3459
     14 C11         3.9813    1.7431   -4.2182 C.3       1 <0>        -0.1049
     15 C12         3.1888    0.4640   -4.4952 C.3       1 <0>         0.0974
     16 N3          2.7218    0.4700   -5.8838 N.am      1 <0>        -0.7330
     17 C13         1.9973   -0.5639   -6.3556 C.2       1 <0>         0.5264
     18 O1          1.7320   -1.4993   -5.6306 O.2       1 <0>        -0.5106
     19 C14         1.5168   -0.5577   -7.7839 C.3       1 <0>        -0.1138
     20 H2          1.3716    0.4656   -8.1302 H         1 <0>         0.1169
     21 C15         0.2033   -1.3610   -7.9132 C.3       1 <0>         0.0986
     22 N4          0.3152   -2.0541   -9.2182 N.am      1 <0>        -0.6194
     23 C16         1.7351   -2.4745   -9.2918 C.3       1 <0>         0.1089
     24 C17         2.5198   -1.2921   -8.6894 C.3       1 <0>        -0.0738
     25 C18         3.6972   -1.8058   -7.8663 C.3       1 <0>        -0.1450
     26 C19         4.7088   -2.4809   -8.7967 C.3       1 <0>        -0.0094
     27 N5          5.1720   -1.5162   -9.8015 N.4       1 <0>        -0.5041
     28 C20         4.0489   -1.0979  -10.6491 C.3       1 <0>        -0.0135
     29 C21         3.0095   -0.3642   -9.7970 C.3       1 <0>        -0.1334
     30 C22        -0.6545   -2.2562  -10.1321 C.2       1 <0>         0.5918
     31 O2         -0.4287   -2.9283  -11.1196 O.2       1 <0>        -0.5012
     32 C23        -1.9917   -1.6611   -9.9338 C.ar      1 <0>        -0.1669
     33 C24        -2.5244   -1.5449   -8.6479 C.ar      1 <0>        -0.0672
     34 C25        -3.7728   -0.9882   -8.4690 C.ar      1 <0>        -0.1196
     35 C26        -4.5007   -0.5437   -9.5596 C.ar      1 <0>        -0.0494
     36 C27        -3.9824   -0.6542  -10.8370 C.ar      1 <0>        -0.0817
     37 C28        -2.7278   -1.2062  -11.0317 C.ar      1 <0>         0.1667
     38 F1         -2.2189   -1.3096  -12.2789 F         1 <0>        -0.1053
     39 Cl1        -4.9034   -0.0937  -12.1976 Cl        1 <0>        -0.0235
     40 H3          7.1654    2.0318   -2.7959 H         1 <0>         0.0840
     41 H4          6.4566    3.2877   -3.8393 H         1 <0>         0.1070
     42 H5          7.2117    3.7383   -2.2918 H         1 <0>         0.1006
     43 H6          3.0745   -0.7697   -2.8424 H         1 <0>         0.1758
     44 H7          4.0495   -1.5544    1.2949 H         1 <0>         0.1758
     45 H8          5.2597    0.5330    1.4990 H         1 <0>         0.1776
     46 H9          3.3411    2.6099   -4.3824 H         1 <0>         0.1362
     47 H10         4.8385    1.7921   -4.8896 H         1 <0>         0.1315
     48 H11         3.8290   -0.4028   -4.3310 H         1 <0>         0.0871
     49 H12         2.3316    0.4151   -3.8238 H         1 <0>         0.0899
     50 H13         2.9340    1.2182   -6.4636 H         1 <0>         0.4069
     51 H14         0.1201   -2.0861   -7.1037 H         1 <0>         0.1042
     52 H15        -0.6548   -0.6889   -7.9122 H         1 <0>         0.1036
     53 H16         1.8953   -3.3779   -8.7033 H         1 <0>         0.0887
     54 H17         2.0304   -2.6372  -10.3283 H         1 <0>         0.0932
     55 H18         4.1749   -0.9706   -7.3541 H         1 <0>         0.0934
     56 H19         3.3402   -2.5276   -7.1317 H         1 <0>         0.1255
     57 H20         5.5591   -2.8342   -8.2134 H         1 <0>         0.1397
     58 H21         4.2351   -3.3260   -9.2961 H         1 <0>         0.1361
     59 H22         5.5601   -0.7089   -9.3370 H         1 <0>         0.4252
     60 H23         4.4128   -0.4317  -11.4313 H         1 <0>         0.1430
     61 H24         3.5909   -1.9760  -11.1043 H         1 <0>         0.1365
     62 H25         2.1677   -0.0697  -10.4237 H         1 <0>         0.1203
     63 H26         3.4624    0.5231   -9.3546 H         1 <0>         0.0961
     64 H27        -1.9593   -1.8910   -7.7951 H         1 <0>         0.1462
     65 H28        -4.1846   -0.8988   -7.4746 H         1 <0>         0.1512
     66 H29        -5.4782   -0.1090   -9.4121 H         1 <0>         0.1554
     67 H30         5.9769    2.8049   -0.0360 H         1 <0>         0.4607
     68 H31         5.8829   -1.9451  -10.3749 H         1 <0>         0.4374
@<TRIPOS>BOND
     1    1    2 1
     2    1   40 1
     3    1   41 1
     4    1   42 1
     5    2    3 1
     6    2   11 1
     7    2    4 1
     8    4    5 2
     9    4   14 1
    10    5   10 ar
    11    5    6 ar
    12    6    7 ar
    13    6   43 1
    14    7    8 ar
    15    7   12 1
    16    8    9 ar
    17    8   44 1
    18    9   10 ar
    19    9   45 1
    20   10   11 2
    21   11   67 1
    22   12   13 3
    23   14   15 1
    24   14   46 1
    25   14   47 1
    26   15   16 1
    27   15   48 1
    28   15   49 1
    29   16   17 am
    30   16   50 1
    31   17   18 2
    32   17   19 1
    33   19   20 1
    34   19   24 1
    35   19   21 1
    36   21   22 1
    37   21   51 1
    38   21   52 1
    39   22   23 1
    40   22   30 am
    41   23   24 1
    42   23   53 1
    43   23   54 1
    44   24   29 1
    45   24   25 1
    46   25   26 1
    47   25   55 1
    48   25   56 1
    49   26   27 1
    50   26   57 1
    51   26   58 1
    52   27   28 1
    53   27   59 1
    54   27   68 1
    55   28   29 1
    56   28   60 1
    57   28   61 1
    58   29   62 1
    59   29   63 1
    60   30   31 2
    61   30   32 1
    62   32   37 ar
    63   32   33 ar
    64   33   34 ar
    65   33   64 1
    66   34   35 ar
    67   34   65 1
    68   35   36 ar
    69   35   66 1
    70   36   37 ar
    71   36   39 1
    72   37   38 1
@<TRIPOS>MOLECULE
ZINC29134399
   68    72     0     0     0
SMALL
USER_CHARGES

@<TRIPOS>ATOM
      1 C1         -7.7531    0.3583   -4.7117 C.3       1 <0>        -0.1226
      2 C2         -7.1863    0.6987   -3.3575 C.ar      1 <0>         0.0753
      3 C3         -7.8653    0.3115   -2.2170 C.ar      1 <0>        -0.0966
      4 C4         -7.3380    0.6281   -0.9757 C.ar      1 <0>        -0.0907
      5 C5         -6.1367    1.3285   -0.9267 C.ar      1 <0>         0.2840
      6 C6         -5.5143    1.6823   -2.1146 C.ar      1 <0>        -0.1342
      7 N1         -6.0469    1.3570   -3.2761 N.ar      1 <0>        -0.3898
      8 C7         -4.2128    2.4411   -2.0774 C.3       1 <0>         0.1716
      9 N2         -4.4873    3.8777   -1.9933 N.pl3     1 <0>        -0.4431
     10 C8         -4.5220    4.6413   -0.8380 C.ar      1 <0>         0.0936
     11 C9         -4.3327    4.3599    0.5065 C.ar      1 <0>        -0.0407
     12 C10        -4.4387    5.3694    1.4409 C.ar      1 <0>        -0.0552
     13 C11        -4.7336    6.6655    1.0445 C.ar      1 <0>        -0.0576
     14 C12        -4.9251    6.9627   -0.2861 C.ar      1 <0>        -0.0865
     15 C13        -4.8208    5.9519   -1.2449 C.ar      1 <0>         0.0568
     16 N3         -4.9520    5.9306   -2.5974 N.pl3     1 <0>        -0.5251
     17 C14        -4.7507    4.7144   -3.0397 C.cat     1 <0>         0.6179
     18 N4         -4.8006    4.3348   -4.3645 N.pl3     1 <0>        -0.6946
     19 C15        -4.9859    5.3447   -5.4094 C.3       1 <0>         0.1286
     20 C16        -6.4807    5.6217   -5.5946 C.3       1 <0>        -0.1742
     21 C17        -6.6712    6.6175   -6.7407 C.3       1 <0>        -0.0051
     22 N5         -6.1192    6.0552   -7.9791 N.4       1 <0>        -0.3878
     23 C18        -4.6725    5.8539   -7.8332 C.3       1 <0>        -0.0037
     24 C19        -4.4051    4.8287   -6.7291 C.3       1 <0>        -0.1562
     25 C20        -6.3736    6.9804   -9.0913 C.3       1 <0>        -0.0505
     26 C21        -4.2332    5.0618    2.9018 C.3       1 <0>         0.1607
     27 N6         -2.8177    5.2277    3.2413 N.pl3     1 <0>        -0.7505
     28 C22        -2.3812    4.9965    4.5478 C.ar      1 <0>         0.2049
     29 C23        -3.2869    4.6036    5.5251 C.ar      1 <0>        -0.1940
     30 C24        -2.8518    4.3754    6.8158 C.ar      1 <0>        -0.0723
     31 C25        -1.5164    4.5379    7.1359 C.ar      1 <0>        -0.1682
     32 C26        -0.6121    4.9289    6.1654 C.ar      1 <0>        -0.0725
     33 C27        -1.0394    5.1532    4.8715 C.ar      1 <0>        -0.1903
     34 O1         -5.5814    1.6616    0.2683 O.3       1 <0>        -0.6004
     35 H1         -7.3761   -0.6138   -5.0294 H         1 <0>         0.1026
     36 H2         -8.8409    0.3244   -4.6522 H         1 <0>         0.1078
     37 H3         -7.4521    1.1181   -5.4329 H         1 <0>         0.0716
     38 H4         -8.7960   -0.2310   -2.2930 H         1 <0>         0.1689
     39 H5         -7.8470    0.3386   -0.0683 H         1 <0>         0.1615
     40 H6         -3.6356    2.1299   -1.2067 H         1 <0>         0.1591
     41 H7         -3.6444    2.2322   -2.9837 H         1 <0>         0.1097
     42 H8         -4.1032    3.3527    0.8216 H         1 <0>         0.1685
     43 H9         -4.8140    7.4473    1.7853 H         1 <0>         0.1585
     44 H10        -5.1545    7.9740   -0.5878 H         1 <0>         0.1521
     45 H11        -4.7130    3.3990   -4.6045 H         1 <0>         0.4262
     46 H12        -4.4765    6.2644   -5.1218 H         1 <0>         0.1129
     47 H13        -6.9967    4.6912   -5.8313 H         1 <0>         0.1059
     48 H14        -6.8896    6.0418   -4.6756 H         1 <0>         0.1150
     49 H15        -7.7343    6.8170   -6.8751 H         1 <0>         0.1467
     50 H16        -6.1550    7.5476   -6.5028 H         1 <0>         0.1375
     51 H17        -4.2601    5.4898   -8.7741 H         1 <0>         0.1494
     52 H18        -4.1990    6.8003   -7.5721 H         1 <0>         0.1389
     53 H19        -3.3304    4.6821   -6.6211 H         1 <0>         0.1316
     54 H20        -4.8780    3.8818   -6.9894 H         1 <0>         0.1044
     55 H21        -5.8977    7.9386   -8.8829 H         1 <0>         0.1269
     56 H22        -5.9641    6.5638  -10.0115 H         1 <0>         0.1315
     57 H23        -7.4480    7.1255   -9.2047 H         1 <0>         0.1306
     58 H24        -4.8336    5.7432    3.5045 H         1 <0>         0.0810
     59 H25        -4.5372    4.0346    3.1031 H         1 <0>         0.0825
     60 H26        -2.1837    5.4980    2.5588 H         1 <0>         0.3977
     61 H27        -4.3301    4.4772    5.2759 H         1 <0>         0.1194
     62 H28        -3.5554    4.0700    7.5761 H         1 <0>         0.1237
     63 H29        -1.1789    4.3595    8.1462 H         1 <0>         0.1221
     64 H30         0.4302    5.0549    6.4188 H         1 <0>         0.1237
     65 H31        -0.3320    5.4542    4.1130 H         1 <0>         0.1176
     66 H32        -5.5900    1.6123   -4.0928 H         1 <0>         0.4069
     67 H33        -6.5631    5.1699   -8.1724 H         1 <0>         0.4276
     68 H34        -5.1589    6.6997   -3.1511 H         1 <0>         0.4487
@<TRIPOS>BOND
     1    1   35 1
     2    1   36 1
     3    1   37 1
     4    1    2 1
     5    2    7 ar
     6    2    3 ar
     7    3   38 1
     8    3    4 ar
     9    4    5 ar
    10    4   39 1
    11    5   34 1
    12    5    6 ar
    13    6    8 1
    14    6    7 ar
    15    7   66 1
    16    8    9 1
    17    8   40 1
    18    8   41 1
    19    9   17 1
    20    9   10 1
    21   10   15 ar
    22   10   11 ar
    23   11   12 ar
    24   11   42 1
    25   12   13 ar
    26   12   26 1
    27   13   14 ar
    28   13   43 1
    29   14   15 ar
    30   14   44 1
    31   15   16 1
    32   16   17 2
    33   16   68 1
    34   17   18 1
    35   18   19 1
    36   18   45 1
    37   19   24 1
    38   19   20 1
    39   19   46 1
    40   20   21 1
    41   20   47 1
    42   20   48 1
    43   21   22 1
    44   21   49 1
    45   21   50 1
    46   22   23 1
    47   22   25 1
    48   22   67 1
    49   23   24 1
    50   23   51 1
    51   23   52 1
    52   24   53 1
    53   24   54 1
    54   25   55 1
    55   25   56 1
    56   25   57 1
    57   26   27 1
    58   26   58 1
    59   26   59 1
    60   27   28 1
    61   27   60 1
    62   28   33 ar
    63   28   29 ar
    64   29   30 ar
    65   29   61 1
    66   30   31 ar
    67   30   62 1
    68   31   32 ar
    69   31   63 1
    70   32   33 ar
    71   32   64 1
    72   33   65 1
@<TRIPOS>MOLECULE
ZINC63230308
   64    67     0     0     0
SMALL
USER_CHARGES

@<TRIPOS>ATOM
      1 C1         -0.0187    1.5258    0.0104 C.3       1 <0>        -0.1553
      2 C2          0.0021   -0.0041    0.0020 C.3       1 <0>         0.0530
      3 O1          0.6709   -0.4649   -1.1737 O.3       1 <0>        -0.3133
      4 C3          0.7768   -1.8108   -1.3362 C.ar      1 <0>         0.1128
      5 C4          0.2425   -2.6683   -0.3860 C.ar      1 <0>        -0.1675
      6 C5          0.3500   -4.0355   -0.5511 C.ar      1 <0>        -0.0982
      7 C6          0.9920   -4.5508   -1.6674 C.ar      1 <0>         0.0736
      8 C7          1.5255   -3.6934   -2.6181 C.ar      1 <0>        -0.1655
      9 C8          1.4142   -2.3262   -2.4551 C.ar      1 <0>        -0.1160
     10 O2          1.0986   -5.8967   -1.8295 O.3       1 <0>        -0.3017
     11 C9          1.7723   -6.3575   -3.0024 C.3       1 <0>         0.0307
     12 C10         1.7932   -7.8874   -3.0107 C.3       1 <0>         0.0848
     13 H1          0.7750   -8.2652   -2.9176 H         1 <0>         0.1371
     14 C11         2.4026   -8.3820   -4.3241 C.3       1 <0>        -0.0439
     15 N1          2.3136   -9.8470   -4.3841 N.4       1 <0>        -0.5049
     16 C12         2.8987  -10.3219   -5.6451 C.3       1 <0>        -0.0054
     17 C13         2.8061  -11.8478   -5.7076 C.3       1 <0>        -0.0256
     18 H2          1.7699  -12.1550   -5.5663 H         1 <0>         0.1396
     19 C14         3.6605  -12.4478   -4.6208 C.ar      1 <0>        -0.1482
     20 C15         5.0186  -12.1921   -4.5886 C.ar      1 <0>        -0.1150
     21 C16         5.8023  -12.7423   -3.5919 C.ar      1 <0>        -0.0960
     22 C17         5.2286  -13.5488   -2.6265 C.ar      1 <0>        -0.0691
     23 C18         3.8710  -13.8052   -2.6576 C.ar      1 <0>        -0.0888
     24 C19         3.0849  -13.2500   -3.6518 C.ar      1 <0>        -0.0251
     25 Cl1         1.3783  -13.5663   -3.6877 Cl        1 <0>        -0.0428
     26 C20         3.2932  -12.3261   -7.0511 C.2       1 <0>         0.0280
     27 C21         2.5880  -13.0238   -7.9705 C.ar      1 <0>        -0.1226
     28 C22         1.2097  -13.5280   -7.9935 C.ar      1 <0>        -0.0399
     29 C23         0.7785  -14.2093   -9.0793 C.ar      1 <0>        -0.1240
     30 C24         1.6130  -14.4459  -10.1803 C.ar      1 <0>         0.0605
     31 C25         2.8909  -14.0143  -10.2328 C.ar      1 <0>        -0.2049
     32 C26         3.4489  -13.2864   -9.1458 C.ar      1 <0>         0.3345
     33 N2          4.6400  -12.7711   -8.9602 N.pl3     1 <0>        -0.5714
     34 C27         4.6674  -12.1173   -7.6471 C.3       1 <0>         0.0587
     35 O3          2.5785   -8.3590   -1.9139 O.3       1 <0>        -0.5401
     36 H3          1.0039    1.9031    0.0027 H         1 <0>         0.0685
     37 H4         -0.5459    1.8868   -0.8726 H         1 <0>         0.0684
     38 H5         -0.5289    1.8773    0.9072 H         1 <0>         0.0834
     39 H6          0.5293   -0.3651    0.8851 H         1 <0>         0.0648
     40 H7         -1.0205   -0.3814    0.0098 H         1 <0>         0.0646
     41 H8         -0.2573   -2.2670    0.4832 H         1 <0>         0.1409
     42 H9         -0.0654   -4.7031    0.1892 H         1 <0>         0.1368
     43 H10         2.0256   -4.0947   -3.4871 H         1 <0>         0.1286
     44 H11         1.8263   -1.6586   -3.1973 H         1 <0>         0.1376
     45 H12         1.2487   -5.9965   -3.8876 H         1 <0>         0.0804
     46 H13         2.7949   -5.9802   -3.0060 H         1 <0>         0.0763
     47 H14         1.8569   -7.9502   -5.1631 H         1 <0>         0.1527
     48 H15         3.4483   -8.0790   -4.3763 H         1 <0>         0.1453
     49 H16         2.8188  -10.2467   -3.6074 H         1 <0>         0.4378
     50 H17         2.3530   -9.8902   -6.4841 H         1 <0>         0.1528
     51 H18         3.9444  -10.0189   -5.6973 H         1 <0>         0.1456
     52 H19         5.4674  -11.5625   -5.3427 H         1 <0>         0.1350
     53 H20         6.8634  -12.5425   -3.5674 H         1 <0>         0.1474
     54 H21         5.8415  -13.9787   -1.8481 H         1 <0>         0.1519
     55 H22         3.4229  -14.4354   -1.9036 H         1 <0>         0.1531
     56 H23         0.5498  -13.3576   -7.1557 H         1 <0>         0.1605
     57 H24        -0.2353  -14.5812   -9.0983 H         1 <0>         0.1653
     58 H25         1.2174  -14.9964  -11.0210 H         1 <0>         0.1695
     59 H26         3.4929  -14.2231  -11.1047 H         1 <0>         0.1687
     60 H27         4.8703  -11.0523   -7.7595 H         1 <0>         0.1730
     61 H28         5.4253  -12.5802   -7.0150 H         1 <0>         0.1755
     62 H29         3.4982   -8.0609   -1.9318 H         1 <0>         0.3907
     63 H30         5.3784  -12.8119   -9.5878 H         1 <0>         0.4624
     64 H31         1.3456  -10.1275   -4.3358 H         1 <0>         0.4344
@<TRIPOS>BOND
     1    1    2 1
     2    1   36 1
     3    1   37 1
     4    1   38 1
     5    2    3 1
     6    2   39 1
     7    2   40 1
     8    3    4 1
     9    4    9 ar
    10    4    5 ar
    11    5    6 ar
    12    5   41 1
    13    6    7 ar
    14    6   42 1
    15    7    8 ar
    16    7   10 1
    17    8    9 ar
    18    8   43 1
    19    9   44 1
    20   10   11 1
    21   11   12 1
    22   11   45 1
    23   11   46 1
    24   12   13 1
    25   12   14 1
    26   12   35 1
    27   14   15 1
    28   14   47 1
    29   14   48 1
    30   15   16 1
    31   15   49 1
    32   15   64 1
    33   16   17 1
    34   16   50 1
    35   16   51 1
    36   17   18 1
    37   17   19 1
    38   17   26 1
    39   19   24 ar
    40   19   20 ar
    41   20   21 ar
    42   20   52 1
    43   21   22 ar
    44   21   53 1
    45   22   23 ar
    46   22   54 1
    47   23   24 ar
    48   23   55 1
    49   24   25 1
    50   26   34 1
    51   26   27 2
    52   27   32 ar
    53   27   28 ar
    54   28   29 ar
    55   28   56 1
    56   29   30 ar
    57   29   57 1
    58   30   31 ar
    59   30   58 1
    60   31   32 ar
    61   31   59 1
    62   32   33 2
    63   33   34 1
    64   33   63 1
    65   34   60 1
    66   34   61 1
    67   35   62 1
@<TRIPOS>MOLECULE
ZINC64166129
   63    67     0     0     0
SMALL
USER_CHARGES

@<TRIPOS>ATOM
      1 C1          3.8259    2.8403    4.9739 C.ar      1 <0>        -0.0602
      2 C2          4.1925    1.5949    5.4487 C.ar      1 <0>        -0.1439
      3 C3          4.7431    0.6623    4.5897 C.ar      1 <0>        -0.0184
      4 C4          4.9267    0.9749    3.2557 C.ar      1 <0>        -0.6746
      5 C5          4.5593    2.2200    2.7807 C.ar      1 <0>        -0.0154
      6 C6          4.0100    3.1531    3.6400 C.ar      1 <0>        -0.1362
      7 S1          5.6296   -0.2134    2.1610 S.o2      1 <0>         2.6882
      8 O1          6.1001    0.5054    1.0291 O.2       1 <0>        -0.9422
      9 O2          6.4793   -1.0374    2.9473 O.2       1 <0>        -0.9475
     10 N1          4.3944   -1.1793    1.6283 N.pl3     1 <0>        -1.0563
     11 C7          3.6590   -1.9432    2.5425 C.ar      1 <0>         0.1095
     12 C8          4.3161   -2.6764    3.5217 C.ar      1 <0>        -0.1048
     13 C9          3.5908   -3.4302    4.4232 C.ar      1 <0>        -0.1647
     14 C10         2.2043   -3.4547    4.3507 C.ar      1 <0>         0.1898
     15 C11         1.5472   -2.7212    3.3718 C.ar      1 <0>        -0.1693
     16 C12         2.2723   -1.9632    2.4736 C.ar      1 <0>        -0.0786
     17 N2          1.4690   -4.2193    5.2643 N.pl3     1 <0>        -0.6382
     18 C13         0.0011   -4.1590    5.2804 C.3       1 <0>         0.1263
     19 C14        -0.4632   -3.8296    6.7026 C.3       1 <0>        -0.1590
     20 C15         0.1348   -4.8456    7.6784 C.3       1 <0>         0.0256
     21 C16         1.6622   -4.7578    7.6365 C.3       1 <0>        -0.1611
     22 C17         2.1504   -5.1019    6.2211 C.3       1 <0>         0.1248
     23 N3         -0.3350   -4.5526    9.0391 N.4       1 <0>        -0.5148
     24 C18         0.1412   -5.5961    9.9569 C.3       1 <0>        -0.0089
     25 C19        -0.3482   -5.2909   11.3740 C.3       1 <0>         0.0730
     26 H1          0.1135   -4.3743   11.7412 H         1 <0>         0.1903
     27 C20        -0.0239   -6.4441   12.2972 C.2       1 <0>         0.0473
     28 C21        -1.2103   -6.8949   12.7648 C.ar      1 <0>        -0.1449
     29 C22        -1.5683   -7.9796   13.6865 C.ar      1 <0>        -0.0030
     30 C23        -2.8729   -8.1957   13.9700 C.ar      1 <0>        -0.1460
     31 C24        -3.8892   -7.4116   13.4070 C.ar      1 <0>         0.0938
     32 C25        -3.6388   -6.3974   12.5521 C.ar      1 <0>        -0.2218
     33 C26        -2.3020   -6.0813   12.1837 C.ar      1 <0>         0.3455
     34 N4         -1.8096   -5.1615   11.3875 N.pl3     1 <0>        -0.6296
     35 H2          3.3916    3.5674    5.6441 H         1 <0>         0.1326
     36 H3          4.0491    1.3507    6.4909 H         1 <0>         0.1288
     37 H4          5.0302   -0.3105    4.9608 H         1 <0>         0.1348
     38 H5          4.7030    2.4644    1.7386 H         1 <0>         0.1449
     39 H6          3.7233    4.1260    3.2690 H         1 <0>         0.1379
     40 H7          4.1804   -1.2158    0.6829 H         1 <0>         0.4302
     41 H8          5.3945   -2.6573    3.5781 H         1 <0>         0.1609
     42 H9          4.1020   -4.0010    5.1843 H         1 <0>         0.1297
     43 H10         0.4688   -2.7403    3.3154 H         1 <0>         0.1277
     44 H11         1.7610   -1.3895    1.7147 H         1 <0>         0.1344
     45 H12        -0.3403   -3.3828    4.5956 H         1 <0>         0.1086
     46 H13        -0.4075   -5.1228    4.9766 H         1 <0>         0.0760
     47 H14        -0.1297   -2.8273    6.9712 H         1 <0>         0.0966
     48 H15        -1.5512   -3.8765    6.7501 H         1 <0>         0.0989
     49 H16        -0.1790   -5.8501    7.3945 H         1 <0>         0.1479
     50 H17         1.9757   -3.7467    7.8963 H         1 <0>         0.0984
     51 H18         2.0870   -5.4652    8.3486 H         1 <0>         0.0971
     52 H19         1.9134   -6.1410    5.9925 H         1 <0>         0.0768
     53 H20         3.2276   -4.9480    6.1571 H         1 <0>         0.1102
     54 H21         0.0239   -3.6566    9.3332 H         1 <0>         0.4347
     55 H22        -0.2466   -6.5640    9.6392 H         1 <0>         0.1568
     56 H23         1.2308   -5.6198    9.9460 H         1 <0>         0.1790
     57 H24         0.9566   -6.8296   12.5349 H         1 <0>         0.2238
     58 H25        -0.8014   -8.5963   14.1314 H         1 <0>         0.1749
     59 H26        -3.1387   -8.9936   14.6477 H         1 <0>         0.1703
     60 H27        -4.9147   -7.6279   13.6676 H         1 <0>         0.1730
     61 H28        -4.4581   -5.8229   12.1457 H         1 <0>         0.1684
     62 H29        -2.3245   -4.5064   10.8909 H         1 <0>         0.4501
     63 H30        -1.3437   -4.5306    9.0491 H         1 <0>         0.4221
@<TRIPOS>BOND
     1    1    6 ar
     2    1    2 ar
     3    1   35 1
     4    2    3 ar
     5    2   36 1
     6    3    4 ar
     7    3   37 1
     8    4    5 ar
     9    4    7 1
    10    5    6 ar
    11    5   38 1
    12    6   39 1
    13    7    8 2
    14    7    9 2
    15    7   10 1
    16   10   11 1
    17   10   40 1
    18   11   16 ar
    19   11   12 ar
    20   12   13 ar
    21   12   41 1
    22   13   14 ar
    23   13   42 1
    24   14   15 ar
    25   14   17 1
    26   15   16 ar
    27   15   43 1
    28   16   44 1
    29   17   22 1
    30   17   18 1
    31   18   19 1
    32   18   45 1
    33   18   46 1
    34   19   20 1
    35   19   47 1
    36   19   48 1
    37   20   21 1
    38   20   23 1
    39   20   49 1
    40   21   22 1
    41   21   50 1
    42   21   51 1
    43   22   52 1
    44   22   53 1
    45   23   24 1
    46   23   54 1
    47   23   63 1
    48   24   25 1
    49   24   55 1
    50   24   56 1
    51   25   26 1
    52   25   34 1
    53   25   27 1
    54   27   28 2
    55   27   57 1
    56   28   33 ar
    57   28   29 ar
    58   29   30 ar
    59   29   58 1
    60   30   31 ar
    61   30   59 1
    62   31   32 ar
    63   31   60 1
    64   32   33 ar
    65   32   61 1
    66   33   34 2
    67   34   62 1
@<TRIPOS>MOLECULE
ZINC04794946
   42    42     0     0     0
SMALL
USER_CHARGES
N2,N2,N4,N4,N6,N6-hexamethyl-1,3,5-triaza-2$l^{5},4$l^{5},6$l^{5}-triphosphacyclohexa-1,3,5-triene-2,2,4,4,6,6-hexamine
@<TRIPOS>ATOM
      1 C1          0.2379    1.8289   -0.4170 C.3       1 <0>         0.0209
      2 N1          0.1221    0.3761   -0.2327 N.pl3     1 <0>        -1.0597
      3 P1         -1.4739   -0.0690    0.0627 P.3       1 <0>         2.6676
      4 N2         -2.0366    0.7443    1.3240 N.2       1 <0>        -1.6887
      5 P2         -3.4297    0.2892    1.9718 P.3       1 <0>         2.6378
      6 N3         -3.3887   -1.2971    2.1977 N.2       1 <0>        -1.6708
      7 P3         -2.9085   -2.2328    0.9890 P.3       1 <0>         2.6380
      8 N4         -1.5444   -1.6343    0.3976 N.2       1 <0>        -1.6944
      9 N5         -4.0861   -2.2548   -0.2132 N.pl3     1 <0>        -1.1187
     10 C2         -3.7039   -3.1566   -1.3081 C.3       1 <0>         0.0088
     11 N6         -2.6442   -3.7966    1.5522 N.pl3     1 <0>        -1.0479
     12 C3         -3.8922   -4.3982    2.0408 C.3       1 <0>         0.0122
     13 N7         -4.6928    0.6811    0.9308 N.pl3     1 <0>        -1.1176
     14 C4         -5.9920    0.3526    1.5325 C.3       1 <0>         0.0174
     15 N8         -3.6502    1.0665    3.4482 N.pl3     1 <0>        -1.0484
     16 C5         -3.7648    2.5196    3.2662 C.3       1 <0>         0.0154
     17 N9         -2.4152    0.2638   -1.2921 N.pl3     1 <0>        -1.1066
     18 C6         -1.8422   -0.3534   -2.4958 C.3       1 <0>         0.0260
     19 H1          1.2886    2.0991   -0.5227 H         1 <0>         0.0736
     20 H2         -0.3057    2.1258   -1.3139 H         1 <0>         0.0713
     21 H3         -0.1833    2.3397    0.4489 H         1 <0>         0.0585
     22 H4          0.7295    0.0558    0.5066 H         1 <0>         0.3862
     23 H5         -4.9859   -2.5083    0.1666 H         1 <0>         0.3789
     24 H6         -4.4281   -3.0717   -2.1183 H         1 <0>         0.0896
     25 H7         -2.7145   -2.8835   -1.6750 H         1 <0>         0.0873
     26 H8         -3.6855   -4.1836   -0.9433 H         1 <0>         0.0410
     27 H9         -2.2210   -4.3711    0.8389 H         1 <0>         0.3716
     28 H10        -4.3371   -3.7496    2.7954 H         1 <0>         0.0942
     29 H11        -4.5872   -4.5185    1.2097 H         1 <0>         0.0263
     30 H12        -3.6783   -5.3727    2.4796 H         1 <0>         0.0843
     31 H13        -4.6532    1.6534    0.6642 H         1 <0>         0.3803
     32 H14        -6.0007   -0.6964    1.8283 H         1 <0>         0.0836
     33 H15        -6.1549    0.9788    2.4096 H         1 <0>         0.0378
     34 H16        -6.7846    0.5318    0.8059 H         1 <0>         0.0885
     35 H17        -4.4543    0.6984    3.9341 H         1 <0>         0.3703
     36 H18        -4.5669    2.7353    2.5603 H         1 <0>         0.0243
     37 H19        -3.9877    2.9894    4.2241 H         1 <0>         0.0826
     38 H20        -2.8247    2.9125    2.8789 H         1 <0>         0.0954
     39 H21        -3.3689   -0.0344   -1.1519 H         1 <0>         0.3803
     40 H22        -0.8845    0.1147   -2.7234 H         1 <0>         0.0821
     41 H23        -1.6935   -1.4192   -2.3219 H         1 <0>         0.0439
     42 H24        -2.5235   -0.2138   -3.3351 H         1 <0>         0.0768
@<TRIPOS>BOND
     1    1    2 1
     2    1   19 1
     3    1   20 1
     4    1   21 1
     5    2    3 1
     6    2   22 1
     7    3    8 1
     8    3    4 2
     9    3   17 1
    10    4    5 1
    11    5    6 2
    12    5   13 1
    13    5   15 1
    14    6    7 1
    15    7    8 2
    16    7    9 1
    17    7   11 1
    18    9   10 1
    19    9   23 1
    20   10   24 1
    21   10   25 1
    22   10   26 1
    23   11   12 1
    24   11   27 1
    25   12   28 1
    26   12   29 1
    27   12   30 1
    28   13   14 1
    29   13   31 1
    30   14   32 1
    31   14   33 1
    32   14   34 1
    33   15   16 1
    34   15   35 1
    35   16   36 1
    36   16   37 1
    37   16   38 1
    38   17   18 1
    39   17   39 1
    40   18   40 1
    41   18   41 1
    42   18   42 1
@<TRIPOS>MOLECULE
ZINC16478067
   39    40     0     0     0
SMALL
USER_CHARGES
(1R,2R,3R,4S)-1-[(2R)-5-phenyl-2,3-dihydro-1,3,4-thiadiazol-2-yl]pentane-1,2,3,4,5-pentol
@<TRIPOS>ATOM
      1 C1         -7.8989   -7.0978   -5.3780 C.ar      1 <0>        -0.1049
      2 C2         -7.3109   -8.0515   -4.5661 C.ar      1 <0>        -0.1192
      3 C3         -6.5665   -7.6653   -3.4708 C.ar      1 <0>        -0.0823
      4 C4         -6.4067   -6.3090   -3.1826 C.ar      1 <0>        -0.0044
      5 C5         -7.0064   -5.3522   -4.0029 C.ar      1 <0>        -0.0902
      6 C6         -7.7440   -5.7517   -5.0982 C.ar      1 <0>        -0.1168
      7 C7         -5.6107   -5.8878   -2.0101 C.2       1 <0>         0.1218
      8 N1         -4.9943   -6.6407   -1.1483 N.2       1 <0>        -0.2373
      9 N2         -4.2757   -6.1392   -0.0848 N.pl3     1 <0>        -0.6095
     10 C8         -4.2478   -4.6626    0.0163 C.3       1 <0>         0.1288
     11 H1         -4.7124   -4.3195    0.9408 H         1 <0>         0.1090
     12 S1         -5.2718   -4.2267   -1.4494 S.3       1 <0>        -0.1427
     13 C9         -2.8229   -4.1221   -0.1195 C.3       1 <0>         0.0826
     14 H2         -2.4217   -4.3964   -1.0952 H         1 <0>         0.1105
     15 C10        -2.8406   -2.5981    0.0146 C.3       1 <0>         0.0544
     16 H3         -3.2417   -2.3238    0.9903 H         1 <0>         0.1113
     17 C11        -1.4157   -2.0577   -0.1212 C.3       1 <0>         0.0546
     18 H4         -1.0145   -2.3319   -1.0969 H         1 <0>         0.1108
     19 C12        -1.4333   -0.5336    0.0129 C.3       1 <0>         0.0813
     20 H5         -1.9862   -0.1019   -0.8214 H         1 <0>         0.1189
     21 C13         0.0021   -0.0041    0.0020 C.3       1 <0>         0.0481
     22 O1         -0.0173    1.4248    0.0099 O.3       1 <0>        -0.5656
     23 O2         -2.0656   -0.1709    1.2420 O.3       1 <0>        -0.5419
     24 O3         -0.5943   -2.6167    0.9058 O.3       1 <0>        -0.5320
     25 O4         -3.6620   -2.0391   -1.0125 O.3       1 <0>        -0.5284
     26 O5         -2.0015   -4.6812    0.9076 O.3       1 <0>        -0.5241
     27 H6         -8.4809   -7.4055   -6.2341 H         1 <0>         0.1274
     28 H7         -7.4354   -9.1007   -4.7902 H         1 <0>         0.1296
     29 H8         -6.1087   -8.4107   -2.8374 H         1 <0>         0.1314
     30 H9         -6.8903   -4.3013   -3.7828 H         1 <0>         0.1281
     31 H10        -8.2051   -5.0123   -5.7361 H         1 <0>         0.1305
     32 H11        -3.8204   -6.7120    0.5519 H         1 <0>         0.4396
     33 H12         0.5123   -0.3556   -0.8948 H         1 <0>         0.0547
     34 H13         0.5293   -0.3651    0.8851 H         1 <0>         0.0552
     35 H14         0.8606    1.8301    0.0037 H         1 <0>         0.3817
     36 H15        -1.6261   -0.5215    2.0288 H         1 <0>         0.3665
     37 H16        -0.8926   -2.4126    1.8028 H         1 <0>         0.3696
     38 H17        -3.3636   -2.2431   -1.9094 H         1 <0>         0.3803
     39 H18        -2.2998   -4.4771    1.8045 H         1 <0>         0.3727
@<TRIPOS>BOND
     1    1    6 ar
     2    1    2 ar
     3    1   27 1
     4    2    3 ar
     5    2   28 1
     6    3    4 ar
     7    3   29 1
     8    4    5 ar
     9    4    7 1
    10    5    6 ar
    11    5   30 1
    12    6   31 1
    13    7   12 1
    14    7    8 2
    15    8    9 1
    16    9   10 1
    17    9   32 1
    18   10   11 1
    19   10   12 1
    20   10   13 1
    21   13   14 1
    22   13   15 1
    23   13   26 1
    24   15   16 1
    25   15   17 1
    26   15   25 1
    27   17   18 1
    28   17   19 1
    29   17   24 1
    30   19   20 1
    31   19   21 1
    32   19   23 1
    33   21   22 1
    34   21   33 1
    35   21   34 1
    36   22   35 1
    37   23   36 1
    38   24   37 1
    39   25   38 1
    40   26   39 1
@<TRIPOS>MOLECULE
ZINC22066938
   33    35     0     0     0
SMALL
USER_CHARGES
5-amino-3-[(2R,3R,4R,5R)-3,4-dihydroxy-5-(hydroxymethyl)tetrahydrofuran-2-yl]-7-hydroxy-thiazolo[4,5-d]pyrimidin-2-one
@<TRIPOS>ATOM
      1 C1         -0.0127    1.0858    0.0080 C.3       1 <0>         0.0928
      2 C2         -0.7527    1.5927   -1.2315 C.3       1 <0>         0.0960
      3 H1         -1.8139    1.3297   -1.1103 H         1 <0>         0.1052
      4 C3         -0.0900    1.0493   -2.5230 C.3       1 <0>         0.1102
      5 H2         -0.3182    0.0038   -2.7778 H         1 <0>         0.0975
      6 C4         -0.5086    2.1110   -3.5716 C.3       1 <0>         0.0585
      7 H3          0.2329    2.2963   -4.3627 H         1 <0>         0.0892
      8 C5         -0.8667    3.3527   -2.7321 C.3       1 <0>         0.2554
      9 H4         -1.9157    3.6688   -2.8304 H         1 <0>         0.0994
     10 O1         -0.6157    3.0246   -1.3553 O.3       1 <0>        -0.3423
     11 N1         -0.0317    4.4873   -3.1341 N.am      1 <0>        -0.5383
     12 C6         -0.6162    5.5915   -3.7065 C.2       1 <0>         0.3839
     13 C7          0.2528    6.6350   -4.0573 C.2       1 <0>        -0.2727
     14 C8         -0.2109    7.7966   -4.6344 C.2       1 <0>         0.5272
     15 N2         -1.5206    7.9184   -4.8532 N.2       1 <0>        -0.5706
     16 C9         -2.3368    6.9307   -4.5145 C.2       1 <0>         0.6607
     17 N3         -1.9207    5.8093   -3.9618 N.pl3     1 <0>        -0.6055
     18 N4         -3.6933    7.0847   -4.7536 N.pl3     1 <0>        -0.8437
     19 O2          0.6445    8.7927   -4.9725 O.2       1 <0>        -0.5702
     20 S1          1.8440    6.0123   -3.5800 S.3       1 <0>         0.0644
     21 C10         1.3026    4.4336   -2.9430 C.2       1 <0>         0.5192
     22 O3          1.9686    3.5369   -2.4593 O.2       1 <0>        -0.3850
     23 O4         -1.6462    1.6618   -4.3105 O.3       1 <0>        -0.5821
     24 O5          1.3316    1.0029   -2.3860 O.3       1 <0>        -0.5663
     25 O6         -0.6816    1.5467    1.1837 O.3       1 <0>        -0.6024
     26 H5          0.0022   -0.0141    0.0019 H         1 <0>         0.0624
     27 H6          1.0193    1.4665    0.0002 H         1 <0>         0.0675
     28 H7         -4.3942    6.2813   -4.4828 H         1 <0>         0.4353
     29 H8         -4.0690    8.0103   -5.2142 H         1 <0>         0.4662
     30 H9         -2.0757    2.2971   -5.0991 H         1 <0>         0.4149
     31 H10         1.9527    0.6393   -3.2179 H         1 <0>         0.4171
     32 H11        -0.2927    1.2807    2.1777 H         1 <0>         0.4162
     33 H12        -2.6665    5.0416   -3.7080 H         1 <0>         0.4399
@<TRIPOS>BOND
     1    1    2 1
     2    1   25 1
     3    1   26 1
     4    1   27 1
     5    2    3 1
     6    2   10 1
     7    2    4 1
     8    4    5 1
     9    4    6 1
    10    4   24 1
    11    6    7 1
    12    6    8 1
    13    6   23 1
    14    8    9 1
    15    8   10 1
    16    8   11 1
    17   11   21 am
    18   11   12 1
    19   12   17 1
    20   12   13 2
    21   13   14 1
    22   13   20 1
    23   14   15 1
    24   14   19 2
    25   15   16 2
    26   16   17 1
    27   16   18 1
    28   17   33 1
    29   18   28 1
    30   18   29 1
    31   20   21 1
    32   21   22 2
    33   23   30 1
    34   24   31 1
    35   25   32 1
@<TRIPOS>MOLECULE
ZINC16919953
   37    39     0     0     0
SMALL
USER_CHARGES

@<TRIPOS>ATOM
      1 C1         -0.0182    1.4608    0.0056 C.3       1 <0>         0.0253
      2 N1          0.0019   -0.0041   -0.0002 N.pl3     1 <0>        -0.4754
      3 C2         -1.1551   -0.6947    0.1036 C.2       1 <0>         0.3491
      4 S1         -2.6530    0.1227    0.2425 S.2       1 <0>        -0.5906
      5 C3         -1.1011   -2.0951    0.0944 C.2       1 <0>        -0.0476
      6 C4          0.1339   -2.7219   -0.0204 C.2       1 <0>         0.4166
      7 N2          1.2444   -1.9810   -0.1191 N.2       1 <0>        -0.5239
      8 C5          1.1859   -0.6669   -0.1157 C.2       1 <0>         0.6349
      9 N3          2.3478    0.0542   -0.2255 N.pl3     1 <0>        -0.8047
     10 N4         -0.1019   -4.0817   -0.0029 N.am      1 <0>        -0.5079
     11 C6         -1.4265   -4.2896    0.1176 C.2       1 <0>         0.6908
     12 O1         -1.9654   -5.3798    0.1644 O.2       1 <0>        -0.5046
     13 N5         -2.0633   -3.1034    0.1794 N.am      1 <0>        -0.6021
     14 H1         -3.0204   -2.9732    0.2680 H         1 <0>         0.4485
     15 C7          0.9206   -5.1264   -0.1000 C.3       1 <0>         0.3260
     16 H2          0.7515   -5.7467   -0.9802 H         1 <0>         0.1208
     17 C8          0.9379   -5.9942    1.1841 C.3       1 <0>         0.0761
     18 H3          0.7561   -5.3837    2.0686 H         1 <0>         0.0894
     19 C9          2.3838   -6.5473    1.1823 C.3       1 <0>         0.0463
     20 H4          2.4071   -7.5529    0.7623 H         1 <0>         0.0974
     21 C10         3.1615   -5.5684    0.2813 C.3       1 <0>         0.0508
     22 H5          3.5460   -6.0945   -0.5924 H         1 <0>         0.0949
     23 O2          2.2411   -4.5437   -0.1348 O.3       1 <0>        -0.3212
     24 C11         4.3193   -4.9474    1.0655 C.3       1 <0>         0.0849
     25 O3          5.1030   -4.1320    0.1921 O.3       1 <0>        -0.5624
     26 O4          2.9211   -6.5470    2.5064 O.3       1 <0>        -0.5502
     27 O5         -0.0149   -7.0554    1.0953 O.3       1 <0>        -0.5261
     28 H6          0.4849    1.8346   -0.8862 H         1 <0>         0.0938
     29 H7         -1.0508    1.8100    0.0135 H         1 <0>         0.1412
     30 H8          0.4962    1.8277    0.8937 H         1 <0>         0.0934
     31 H9          2.3281    1.0207   -0.1460 H         1 <0>         0.4207
     32 H10         3.1890   -0.4024   -0.3827 H         1 <0>         0.4344
     33 H11         3.9225   -4.3353    1.8754 H         1 <0>         0.0634
     34 H12         4.9430   -5.7392    1.4805 H         1 <0>         0.0598
     35 H13         5.8564   -3.7055    0.6228 H         1 <0>         0.3826
     36 H14         3.8257   -6.8839    2.5639 H         1 <0>         0.3862
     37 H15        -0.0416   -7.6264    1.8753 H         1 <0>         0.3895
@<TRIPOS>BOND
     1    1    2 1
     2    1   28 1
     3    1   29 1
     4    1   30 1
     5    2    8 1
     6    2    3 1
     7    3    4 2
     8    3    5 1
     9    5   13 1
    10    5    6 2
    11    6    7 1
    12    6   10 1
    13    7    8 2
    14    8    9 1
    15    9   31 1
    16    9   32 1
    17   10   11 am
    18   10   15 1
    19   11   12 2
    20   11   13 am
    21   13   14 1
    22   15   16 1
    23   15   23 1
    24   15   17 1
    25   17   18 1
    26   17   19 1
    27   17   27 1
    28   19   20 1
    29   19   21 1
    30   19   26 1
    31   21   22 1
    32   21   23 1
    33   21   24 1
    34   24   25 1
    35   24   33 1
    36   24   34 1
    37   25   35 1
    38   26   36 1
    39   27   37 1
@<TRIPOS>MOLECULE
ZINC45084037
   42    42     0     0     0
SMALL
USER_CHARGES

@<TRIPOS>ATOM
      1 C1         -0.0187    1.5258    0.0104 C.3       1 <0>        -0.1466
      2 C2          0.0021   -0.0041    0.0020 C.3       1 <0>        -0.1137
      3 C3          0.7421   -0.5109    1.2415 C.3       1 <0>        -0.1428
      4 C4         -1.4333   -0.5336    0.0129 C.3       1 <0>         0.1130
      5 N1         -1.4164   -1.9929   -0.1155 N.am      1 <0>        -0.5292
      6 C5         -1.4502   -2.5704   -1.3645 C.2       1 <0>         0.3880
      7 C6         -1.4335   -3.9344   -1.4737 C.2       1 <0>        -0.0707
      8 C7         -1.3823   -4.7118   -0.3027 C.2       1 <0>         0.5613
      9 O1         -1.3662   -5.9292   -0.3747 O.2       1 <0>        -0.5248
     10 N2         -1.3506   -4.1033    0.8992 N.am      1 <0>        -0.6572
     11 H1         -1.3148   -4.6380    1.7077 H         1 <0>         0.4331
     12 C8         -1.3624   -2.7610    0.9881 C.2       1 <0>         0.7033
     13 O2         -1.3285   -2.2334    2.0833 O.2       1 <0>        -0.5365
     14 N3         -1.4679   -4.5531   -2.7449 N.pl3     1 <0>        -0.7419
     15 C9         -1.4497   -6.0142   -2.8492 C.3       1 <0>         0.1598
     16 C10        -1.4942   -6.4209   -4.3234 C.3       1 <0>        -0.1275
     17 C11        -1.4751   -7.9469   -4.4323 C.3       1 <0>        -0.6199
     18 S1         -1.5279   -8.4291   -6.1803 S.o2      1 <0>         2.6173
     19 O3         -2.7877   -8.0905   -6.7436 O.2       1 <0>        -0.9621
     20 O4         -0.3202   -8.0537   -6.8282 O.2       1 <0>        -0.9603
     21 N4         -1.5026  -10.0849   -6.1659 N.pl3     1 <0>        -1.2504
     22 N5         -1.5006   -1.7837   -2.4925 N.pl3     1 <0>        -0.8446
     23 H2          1.0039    1.9031    0.0027 H         1 <0>         0.0642
     24 H3         -0.5459    1.8868   -0.8726 H         1 <0>         0.0577
     25 H4         -0.5289    1.8773    0.9072 H         1 <0>         0.0620
     26 H5          0.5123   -0.3556   -0.8948 H         1 <0>         0.0747
     27 H6          1.7647   -0.1336    1.2338 H         1 <0>         0.0550
     28 H7          0.2319   -0.1594    2.1383 H         1 <0>         0.0659
     29 H8          0.7568   -1.6008    1.2356 H         1 <0>         0.0496
     30 H9         -1.9156   -0.2570    0.9504 H         1 <0>         0.1091
     31 H10        -1.9862   -0.1019   -0.8214 H         1 <0>         0.0903
     32 H11        -1.5035   -4.0100   -3.5478 H         1 <0>         0.3921
     33 H12        -0.5377   -6.3997   -2.3933 H         1 <0>         0.0648
     34 H13        -2.3164   -6.4262   -2.3323 H         1 <0>         0.0650
     35 H14        -2.4061   -6.0355   -4.7793 H         1 <0>         0.0842
     36 H15        -0.6274   -6.0090   -4.8403 H         1 <0>         0.0840
     37 H16        -0.5631   -8.3324   -3.9765 H         1 <0>         0.1369
     38 H17        -2.3418   -8.3589   -3.9155 H         1 <0>         0.1395
     39 H18        -1.9398  -10.5827   -6.8744 H         1 <0>         0.4217
     40 H19        -1.0507  -10.5569   -5.4491 H         1 <0>         0.4145
     41 H20        -1.5125   -0.8173   -2.4097 H         1 <0>         0.4052
     42 H21        -1.5242   -2.1956   -3.3704 H         1 <0>         0.4159
@<TRIPOS>BOND
     1    1    2 1
     2    1   23 1
     3    1   24 1
     4    1   25 1
     5    2    3 1
     6    2    4 1
     7    2   26 1
     8    3   27 1
     9    3   28 1
    10    3   29 1
    11    4    5 1
    12    4   30 1
    13    4   31 1
    14    5   12 am
    15    5    6 1
    16    6    7 2
    17    6   22 1
    18    7    8 1
    19    7   14 1
    20    8    9 2
    21    8   10 am
    22   10   11 1
    23   10   12 am
    24   12   13 2
    25   14   15 1
    26   14   32 1
    27   15   16 1
    28   15   33 1
    29   15   34 1
    30   16   17 1
    31   16   35 1
    32   16   36 1
    33   17   18 1
    34   17   37 1
    35   17   38 1
    36   18   19 2
    37   18   20 2
    38   18   21 1
    39   21   39 1
    40   21   40 1
    41   22   41 1
    42   22   42 1
@<TRIPOS>MOLECULE
ZINC04268259
   46    48     0     0     0
SMALL
USER_CHARGES
2-[[7-hydroxy-9-(hydroxymethyl)-3-oxabicyclo[4.3.0]nona-4,8-dien-2-yl]oxy]-6-(hydroxymethyl)tetrahydropyran-3,4,5-triol
@<TRIPOS>ATOM
      1 C1          1.7338    5.5719   -1.9000 C.2       1 <0>        -0.2575
      2 C2          2.2345    4.7063   -2.7402 C.2       1 <0>         0.0705
      3 O1          2.7807    3.5419   -2.3084 O.3       1 <0>        -0.3470
      4 C3          3.3643    3.5836   -1.0014 C.3       1 <0>         0.2667
      5 H1          4.1940    4.2904   -0.9948 H         1 <0>         0.0872
      6 C4          2.3055    4.0302    0.0077 C.3       1 <0>        -0.0728
      7 H2          2.7269    4.1068    1.0100 H         1 <0>         0.1115
      8 C5          1.6960    5.3801   -0.4162 C.3       1 <0>        -0.0353
      9 H3          2.1654    6.2169    0.1011 H         1 <0>         0.1077
     10 C6          0.2232    5.1969    0.0273 C.3       1 <0>         0.1362
     11 H4         -0.4499    5.6805   -0.6806 H         1 <0>         0.0694
     12 C7          0.0073    3.7009    0.0223 C.2       1 <0>        -0.1853
     13 C8          1.1470    3.0623    0.0076 C.2       1 <0>        -0.1007
     14 C9          1.2864    1.5618   -0.0018 C.3       1 <0>         0.1309
     15 O2         -0.0110    0.9628    0.0073 O.3       1 <0>        -0.5738
     16 O3          0.0264    5.7245    1.3407 O.3       1 <0>        -0.5586
     17 O4          3.8390    2.2829   -0.6480 O.3       1 <0>        -0.3347
     18 C10         4.9825    1.8592   -1.3930 C.3       1 <0>         0.2227
     19 H5          4.7964    2.0026   -2.4573 H         1 <0>         0.0693
     20 C11         5.2515    0.3776   -1.1167 C.3       1 <0>         0.0662
     21 H6          4.4030   -0.2162   -1.4566 H         1 <0>         0.0695
     22 C12         6.5130   -0.0535   -1.8711 C.3       1 <0>         0.0788
     23 H7          6.3497    0.0501   -2.9438 H         1 <0>         0.0792
     24 C13         7.6814    0.8394   -1.4420 C.3       1 <0>         0.0909
     25 H8          8.5710    0.5750   -2.0138 H         1 <0>         0.0742
     26 C14         7.3185    2.3031   -1.7057 C.3       1 <0>         0.1146
     27 H9          7.1632    2.4523   -2.7742 H         1 <0>         0.0796
     28 O5          6.1198    2.6301   -0.9999 O.3       1 <0>        -0.3704
     29 C15         8.4564    3.2055   -1.2243 C.3       1 <0>         0.0891
     30 O6          8.1702    4.5610   -1.5750 O.3       1 <0>        -0.5697
     31 O7          7.9371    0.6543   -0.0483 O.3       1 <0>        -0.5286
     32 O8          6.8134   -1.4157   -1.5609 O.3       1 <0>        -0.5471
     33 O9          5.4428    0.1804    0.2856 O.3       1 <0>        -0.5214
     34 H10         1.3200    6.4849   -2.3020 H         1 <0>         0.1298
     35 H11         2.2131    4.9213   -3.7983 H         1 <0>         0.1640
     36 H12        -0.9612    3.2231    0.0303 H         1 <0>         0.1357
     37 H13         1.8401    1.2428    0.8812 H         1 <0>         0.0589
     38 H14         1.8231    1.2523   -0.8987 H         1 <0>         0.0660
     39 H15         0.0021   -0.0041    0.0020 H         1 <0>         0.3832
     40 H16        -0.8659    5.5910    1.6886 H         1 <0>         0.3827
     41 H17         8.5525    3.1229   -0.1417 H         1 <0>         0.0699
     42 H18         9.3892    2.8973   -1.6965 H         1 <0>         0.0642
     43 H19         8.8508    5.1905   -1.3000 H         1 <0>         0.3842
     44 H20         8.1689   -0.2532    0.1920 H         1 <0>         0.3848
     45 H21         6.1123   -2.0373   -1.8000 H         1 <0>         0.3863
     46 H22         4.6834    0.4376    0.8262 H         1 <0>         0.3791
@<TRIPOS>BOND
     1    1    8 1
     2    1    2 2
     3    1   34 1
     4    2    3 1
     5    2   35 1
     6    3    4 1
     7    4    5 1
     8    4    6 1
     9    4   17 1
    10    6    7 1
    11    6   13 1
    12    6    8 1
    13    8    9 1
    14    8   10 1
    15   10   11 1
    16   10   12 1
    17   10   16 1
    18   12   13 2
    19   12   36 1
    20   13   14 1
    21   14   15 1
    22   14   37 1
    23   14   38 1
    24   15   39 1
    25   16   40 1
    26   17   18 1
    27   18   19 1
    28   18   28 1
    29   18   20 1
    30   20   21 1
    31   20   22 1
    32   20   33 1
    33   22   23 1
    34   22   24 1
    35   22   32 1
    36   24   25 1
    37   24   26 1
    38   24   31 1
    39   26   27 1
    40   26   28 1
    41   26   29 1
    42   29   30 1
    43   29   41 1
    44   29   42 1
    45   30   43 1
    46   31   44 1
    47   32   45 1
    48   33   46 1
@<TRIPOS>MOLECULE
ZINC05011622
   39    41     0     0     0
SMALL
USER_CHARGES
4,6-diamino-7-[(2S,3S,4S,5S)-3,4-dihydroxy-5-(hydroxymethyl)tetrahydrofuran-2-yl]pyrrolo[4,5-e]pyrimidine-5-carbothioamide
@<TRIPOS>ATOM
      1 C1         -1.8343    4.8135    2.5828 C.ar      1 <0>         0.3528
      2 N1         -1.4188    5.2467    3.7587 N.ar      1 <0>        -0.5836
      3 C2         -0.1329    5.1843    4.0947 C.ar      1 <0>         0.4792
      4 C3          0.7708    4.6475    3.1705 C.ar      1 <0>        -0.1835
      5 C4          2.2245    4.4098    3.1568 C.2       1 <0>        -0.2869
      6 C5          2.5089    3.8404    1.9230 C.2       1 <0>         0.4487
      7 N2          1.3540    3.7214    1.2092 N.pl3     1 <0>        -0.4608
      8 C6          0.2877    4.2042    1.9301 C.ar      1 <0>         0.3587
      9 N3         -1.0184    4.3023    1.6858 N.ar      1 <0>        -0.5536
     10 C7          1.2625    3.1621   -0.1418 C.3       1 <0>         0.3042
     11 H1          0.3201    3.4482   -0.6088 H         1 <0>         0.1343
     12 C8          1.3952    1.6236   -0.0970 C.3       1 <0>         0.0726
     13 H2          1.9330    1.3105    0.7978 H         1 <0>         0.0909
     14 C9          2.2080    1.2799   -1.3653 C.3       1 <0>         0.0437
     15 H3          1.6268    0.6405   -2.0298 H         1 <0>         0.0986
     16 C10         2.4702    2.6513   -2.0262 C.3       1 <0>         0.0486
     17 H4          1.7131    2.8591   -2.7823 H         1 <0>         0.1007
     18 O1          2.3772    3.6054   -0.9460 O.3       1 <0>        -0.3479
     19 C11         3.8670    2.6836   -2.6498 C.3       1 <0>         0.0800
     20 O2          4.0458    3.9139   -3.3544 O.3       1 <0>        -0.5610
     21 O3          3.4413    0.6493   -1.0140 O.3       1 <0>        -0.5513
     22 O4          0.1064    1.0083   -0.1462 O.3       1 <0>        -0.5358
     23 N4          3.7582    3.4564    1.4900 N.pl3     1 <0>        -0.8304
     24 C12         3.1461    4.7027    4.1934 C.2       1 <0>         0.4540
     25 S1          3.8415    6.2631    4.3049 S.2       1 <0>        -0.5574
     26 N5          3.4747    3.7527    5.0911 N.pl3     1 <0>        -0.7598
     27 N6          0.3007    5.6390    5.3292 N.pl3     1 <0>        -0.8285
     28 H5         -2.8861    4.8817    2.3474 H         1 <0>         0.2039
     29 H6          4.6178    2.6028   -1.8637 H         1 <0>         0.0649
     30 H7          3.9751    1.8491   -3.3426 H         1 <0>         0.0663
     31 H8          4.9113    4.0034   -3.7762 H         1 <0>         0.3875
     32 H9          3.9917    0.4118   -1.7727 H         1 <0>         0.3879
     33 H10         0.1329    0.0423   -0.1812 H         1 <0>         0.3919
     34 H11         3.8552    2.9786    0.6514 H         1 <0>         0.4112
     35 H12         4.5414    3.6636    2.0235 H         1 <0>         0.4190
     36 H13         3.0263    2.8928    5.0735 H         1 <0>         0.4042
     37 H14         4.1597    3.9289    5.7550 H         1 <0>         0.4191
     38 H15         1.2488    5.6570    5.5338 H         1 <0>         0.4083
     39 H16        -0.3436    5.9395    5.9891 H         1 <0>         0.4098
@<TRIPOS>BOND
     1    1    9 ar
     2    1    2 ar
     3    1   28 1
     4    2    3 ar
     5    3    4 ar
     6    3   27 1
     7    4    8 ar
     8    4    5 1
     9    5    6 2
    10    5   24 1
    11    6    7 1
    12    6   23 1
    13    7    8 1
    14    7   10 1
    15    8    9 ar
    16   10   11 1
    17   10   18 1
    18   10   12 1
    19   12   13 1
    20   12   14 1
    21   12   22 1
    22   14   15 1
    23   14   16 1
    24   14   21 1
    25   16   17 1
    26   16   18 1
    27   16   19 1
    28   19   20 1
    29   19   29 1
    30   19   30 1
    31   20   31 1
    32   21   32 1
    33   22   33 1
    34   23   34 1
    35   23   35 1
    36   24   25 2
    37   24   26 1
    38   26   36 1
    39   26   37 1
    40   27   38 1
    41   27   39 1
@<TRIPOS>MOLECULE
ZINC21992814
   48    50     0     0     0
SMALL
USER_CHARGES
(2S,3R,4S,5S,6R)-2-[[(1S,4aR,5S,7S,7aS)-5-hydroxy-7-(hydroxymethyl)-1,4a,5,6,7,7a-hexahydrocyclopenta[c]pyran-1-yl]oxy]-6-(hydroxymethyl)tetrahydropyran-3,4,5-triol
@<TRIPOS>ATOM
      1 C1          0.5987    3.5675    1.3778 C.3       1 <0>        -0.0972
      2 C2          1.1449    3.0852    0.0077 C.3       1 <0>        -0.0754
      3 H1          0.4870    3.3480   -0.8338 H         1 <0>         0.0838
      4 C3          2.5088    3.7432   -0.1260 C.3       1 <0>        -0.0871
      5 H2          2.3640    4.6478   -0.7349 H         1 <0>         0.1101
      6 C4          2.9878    3.8528    1.3510 C.3       1 <0>        -0.0725
      7 H3          3.3341    2.9708    1.9097 H         1 <0>         0.1049
      8 C5          1.7364    4.4039    2.0313 C.3       1 <0>         0.1184
      9 H4          1.7684    4.4014    3.1308 H         1 <0>         0.0598
     10 O1          1.5756    5.7951    1.7471 O.3       1 <0>        -0.5992
     11 C6          4.2115    4.7018    1.3302 C.2       1 <0>        -0.2676
     12 C7          4.9956    4.6200    0.2682 C.2       1 <0>         0.0527
     13 O2          4.7653    3.8461   -0.8127 O.3       1 <0>        -0.3395
     14 C8          3.6004    3.0005   -0.8677 C.3       1 <0>         0.2456
     15 H5          3.3525    2.7541   -1.9107 H         1 <0>         0.1243
     16 O3          3.8688    1.7519   -0.2266 O.3       1 <0>        -0.3518
     17 C9          4.8084    0.9310   -0.9232 C.3       1 <0>         0.2666
     18 H6          5.6984    1.5449   -1.1258 H         1 <0>         0.0734
     19 C10         5.1119   -0.3172   -0.0904 C.3       1 <0>         0.1204
     20 H7          4.1903   -0.8513    0.1844 H         1 <0>         0.0773
     21 C11         6.0726   -1.2204   -0.8698 C.3       1 <0>         0.0993
     22 H8          7.0610   -0.7523   -0.9882 H         1 <0>         0.0731
     23 C12         5.4468   -1.5638   -2.2250 C.3       1 <0>         0.0647
     24 H9          4.5500   -2.1897   -2.1070 H         1 <0>         0.0760
     25 C13         5.1305   -0.2675   -2.9755 C.3       1 <0>         0.0730
     26 H10         6.0372    0.3352   -3.1326 H         1 <0>         0.0791
     27 O4          4.2576    0.5396   -2.1824 O.3       1 <0>        -0.3902
     28 C14         4.4501   -0.6005   -4.3048 C.3       1 <0>         0.0948
     29 O5          4.2589    0.6001   -5.0559 O.3       1 <0>        -0.5910
     30 O6          6.3640   -2.3474   -2.9911 O.3       1 <0>        -0.5906
     31 O7          6.3038   -2.4220   -0.1317 O.3       1 <0>        -0.5922
     32 O8          5.7161    0.0688    1.1457 O.3       1 <0>        -0.5776
     33 C15         1.2864    1.5618   -0.0018 C.3       1 <0>         0.0915
     34 O9         -0.0110    0.9628    0.0073 O.3       1 <0>        -0.6057
     35 H11         0.3516    2.7144    2.0268 H         1 <0>         0.0841
     36 H12        -0.2923    4.1992    1.2475 H         1 <0>         0.0781
     37 H13         2.3006    6.5238    2.1387 H         1 <0>         0.4032
     38 H14         4.4734    5.3792    2.1564 H         1 <0>         0.1312
     39 H15         5.9204    5.2137    0.2203 H         1 <0>         0.1582
     40 H16         5.0835   -1.2942   -4.8772 H         1 <0>         0.0609
     41 H17         3.4748   -1.0704   -4.1099 H         1 <0>         0.0558
     42 H18         3.7810    0.5593   -6.0458 H         1 <0>         0.4153
     43 H19         6.0865   -2.6899   -3.9989 H         1 <0>         0.4144
     44 H20         6.9721   -3.1962   -0.5366 H         1 <0>         0.4243
     45 H21         6.0062   -0.6979    1.8791 H         1 <0>         0.4212
     46 H22         1.8281    1.2495   -0.9068 H         1 <0>         0.0494
     47 H23         1.8452    1.2399    0.8894 H         1 <0>         0.0475
     48 H24        -0.1111   -0.1326    0.0024 H         1 <0>         0.4050
@<TRIPOS>BOND
     1    1    8 1
     2    1    2 1
     3    1   35 1
     4    1   36 1
     5    2    3 1
     6    2    4 1
     7    2   33 1
     8    4    5 1
     9    4   14 1
    10    4    6 1
    11    6    7 1
    12    6    8 1
    13    6   11 1
    14    8    9 1
    15    8   10 1
    16   10   37 1
    17   11   12 2
    18   11   38 1
    19   12   13 1
    20   12   39 1
    21   13   14 1
    22   14   15 1
    23   14   16 1
    24   16   17 1
    25   17   18 1
    26   17   27 1
    27   17   19 1
    28   19   20 1
    29   19   21 1
    30   19   32 1
    31   21   22 1
    32   21   23 1
    33   21   31 1
    34   23   24 1
    35   23   25 1
    36   23   30 1
    37   25   26 1
    38   25   27 1
    39   25   28 1
    40   28   29 1
    41   28   40 1
    42   28   41 1
    43   29   42 1
    44   30   43 1
    45   31   44 1
    46   32   45 1
    47   33   34 1
    48   33   46 1
    49   33   47 1
    50   34   48 1
@<TRIPOS>MOLECULE
ZINC17107238
   37    40     0     0     0
SMALL
USER_CHARGES
amino-[(2R,3S,4S,5S)-3,4-dihydroxy-5-(hydroxymethyl)tetrahydrofuran-2-yl]BLAHone
@<TRIPOS>ATOM
      1 C1         -0.0548    1.2075   -0.9166 C.ar      1 <0>         0.3738
      2 N1          1.0986    1.8436   -0.8311 N.ar      1 <0>        -0.5987
      3 C2          1.1484    3.1229   -0.4697 C.ar      1 <0>         0.5049
      4 C3         -0.0531    3.7828   -0.1809 C.ar      1 <0>        -0.2178
      5 C4         -0.4199    5.1376    0.2368 C.2       1 <0>        -0.2208
      6 C5         -1.8098    5.1537    0.3573 C.2       1 <0>         0.3273
      7 N2         -2.4045    6.3222    0.7401 N.pl3     1 <0>        -0.4097
      8 H1         -3.4982    6.3738    0.8461 H         1 <0>         0.4796
      9 N3         -1.7067    7.3730    0.9814 N.2       1 <0>         0.1354
     10 N4         -0.4277    7.4172    0.8872 N.2       1 <0>        -0.3118
     11 C6          0.2860    6.3311    0.5181 C.2       1 <0>         0.5075
     12 O1          1.5030    6.3781    0.4295 O.2       1 <0>        -0.5012
     13 N5         -2.2880    3.9156    0.0435 N.pl3     1 <0>        -0.4525
     14 C7         -1.2578    3.0667   -0.2850 C.ar      1 <0>         0.3734
     15 N6         -1.2065    1.7895   -0.6594 N.ar      1 <0>        -0.5514
     16 C8         -3.7045    3.5418    0.0550 C.3       1 <0>         0.2903
     17 H2         -4.0762    3.8052    1.0562 H         1 <0>         0.1428
     18 C9         -4.4475    4.2136   -1.1210 C.3       1 <0>         0.0912
     19 H3         -5.4459    4.6028   -0.8725 H         1 <0>         0.1076
     20 C10        -4.4322    3.1433   -2.2353 C.3       1 <0>         0.0662
     21 H4         -4.0206    3.4849   -3.1965 H         1 <0>         0.0838
     22 C11        -3.6817    1.9515   -1.6007 C.3       1 <0>         0.0222
     23 H5         -2.6073    1.9230   -1.8348 H         1 <0>         0.1357
     24 O2         -3.8521    2.1235   -0.1742 O.3       1 <0>        -0.3057
     25 C12        -4.3002    0.6286   -2.0572 C.3       1 <0>         0.0961
     26 O3         -3.5225   -0.4595   -1.5542 O.3       1 <0>        -0.5800
     27 O4         -5.7653    2.7686   -2.5881 O.3       1 <0>        -0.5935
     28 O5         -3.7556    5.3903   -1.5437 O.3       1 <0>        -0.5981
     29 N7          2.3594    3.7867   -0.3815 N.pl3     1 <0>        -0.8386
     30 H6         -0.0535    0.1691   -1.2138 H         1 <0>         0.2040
     31 H7         -5.3283    0.5528   -1.6734 H         1 <0>         0.0547
     32 H8         -4.3155    0.5910   -3.1564 H         1 <0>         0.0508
     33 H9         -3.8149   -1.4955   -1.7806 H         1 <0>         0.4084
     34 H10        -5.9358    2.0133   -3.3694 H         1 <0>         0.4160
     35 H11        -4.1511    5.9920   -2.3753 H         1 <0>         0.4323
     36 H12         2.3861    4.8446   -0.0814 H         1 <0>         0.4485
     37 H13         3.2953    3.2564   -0.6115 H         1 <0>         0.4271
@<TRIPOS>BOND
     1    1   15 ar
     2    1    2 ar
     3    1   30 1
     4    2    3 ar
     5    3    4 ar
     6    3   29 1
     7    4   14 ar
     8    4    5 1
     9    5   11 1
    10    5    6 2
    11    6    7 1
    12    6   13 1
    13    7    8 1
    14    7    9 1
    15    9   10 2
    16   10   11 1
    17   11   12 2
    18   13   14 1
    19   13   16 1
    20   14   15 ar
    21   16   17 1
    22   16   24 1
    23   16   18 1
    24   18   19 1
    25   18   20 1
    26   18   28 1
    27   20   21 1
    28   20   22 1
    29   20   27 1
    30   22   23 1
    31   22   24 1
    32   22   25 1
    33   25   26 1
    34   25   31 1
    35   25   32 1
    36   26   33 1
    37   27   34 1
    38   28   35 1
    39   29   36 1
    40   29   37 1
@<TRIPOS>MOLECULE
ZINC37930044
   34    34     0     0     0
SMALL
USER_CHARGES

@<TRIPOS>ATOM
      1 C1          0.6388    1.9640   -0.0314 C.ar      1 <0>        -0.1430
      2 C2          0.7437    1.0479   -1.0597 C.ar      1 <0>        -0.0108
      3 C3          1.8151    0.1750   -1.1035 C.ar      1 <0>        -0.0324
      4 C4          2.7850    0.2159   -0.1184 C.ar      1 <0>        -0.5808
      5 C5          2.6863    1.1293    0.9125 C.ar      1 <0>        -0.0918
      6 C6          1.6113    2.0081    0.9592 C.ar      1 <0>         0.2546
      7 N1          1.5086    2.9336    2.0003 N.pl3     1 <0>        -0.5717
      8 N2          0.4507    3.7966    2.0450 N.3       1 <0>        -0.6045
      9 S1          4.1480   -0.8992   -0.1786 S.o2      1 <0>         2.7012
     10 O1          4.9976   -0.5612    0.9092 O.2       1 <0>        -0.9483
     11 O2          3.6012   -2.2005   -0.3425 O.2       1 <0>        -0.9231
     12 N3          4.9942   -0.5638   -1.5620 N.pl3     1 <0>        -1.0927
     13 C7          5.6351    0.7429   -1.7301 C.3       1 <0>         0.1269
     14 C8          6.6794    0.6591   -2.8451 C.3       1 <0>        -0.6396
     15 S2          7.4729    2.2770   -3.0532 S.o2      1 <0>         2.6204
     16 O3          6.5399    3.2172   -3.5678 O.2       1 <0>        -0.9578
     17 O4          8.2587    2.5873   -1.9106 O.2       1 <0>        -0.9543
     18 N4          8.5701    2.0589   -4.2742 N.pl3     1 <0>        -1.2480
     19 N5          1.9239   -0.8056   -2.2066 N.pl3     1 <0>         0.0364
     20 O5          1.0166   -0.9310   -2.9957 O.2       1 <0>        -0.1377
     21 O6          2.9202   -1.4813   -2.3187 O.3       1 <0>        -0.1688
     22 H1         -0.1962    2.6483   -0.0001 H         1 <0>         0.1584
     23 H2         -0.0122    1.0131   -1.8304 H         1 <0>         0.1633
     24 H3          3.4439    1.1604    1.6816 H         1 <0>         0.1660
     25 H4          2.1884    2.9634    2.6916 H         1 <0>         0.4154
     26 H5          0.5118    4.4022    2.8498 H         1 <0>         0.3701
     27 H6          0.3855    4.3331    1.1929 H         1 <0>         0.3439
     28 H7          5.0656   -1.2325   -2.2611 H         1 <0>         0.4337
     29 H8          4.8820    1.4858   -1.9927 H         1 <0>         0.0774
     30 H9          6.1210    1.0318   -0.7981 H         1 <0>         0.0995
     31 H10         7.4325   -0.0839   -2.5825 H         1 <0>         0.1512
     32 H11         6.1935    0.3702   -3.7770 H         1 <0>         0.1483
     33 H12         8.6593    1.1904   -4.6968 H         1 <0>         0.4151
     34 H13         9.1237    2.7998   -4.5668 H         1 <0>         0.4234
@<TRIPOS>BOND
     1    1    6 ar
     2    1    2 ar
     3    1   22 1
     4    2    3 ar
     5    2   23 1
     6    3    4 ar
     7    3   19 1
     8    4    5 ar
     9    4    9 1
    10    5    6 ar
    11    5   24 1
    12    6    7 1
    13    7    8 1
    14    7   25 1
    15    8   26 1
    16    8   27 1
    17    9   10 2
    18    9   11 2
    19    9   12 1
    20   12   13 1
    21   12   28 1
    22   13   14 1
    23   13   29 1
    24   13   30 1
    25   14   15 1
    26   14   31 1
    27   14   32 1
    28   15   16 2
    29   15   17 2
    30   15   18 1
    31   18   33 1
    32   18   34 1
    33   19   20 2
    34   19   21 1
@<TRIPOS>MOLECULE
ZINC02132095
   61    65     0     0     0
SMALL
USER_CHARGES
3-[chloro-[(4-methoxyphenyl)methyl]-methyl-trioxo-BLAHyl]propanamide
@<TRIPOS>ATOM
      1 C1          5.2670   -3.3392   -5.4412 C.3       1 <0>        -0.1273
      2 C2          5.6740   -1.9058   -5.6663 C.ar      1 <0>        -0.0686
      3 C3          6.7636   -1.6173   -6.4619 C.ar      1 <0>        -0.0408
      4 C4          7.1449   -0.3043   -6.6747 C.ar      1 <0>        -0.0442
      5 C5          6.4286    0.7247   -6.0863 C.ar      1 <0>        -0.0429
      6 C6          5.3404    0.4405   -5.2927 C.ar      1 <0>        -0.1830
      7 C7          4.9484   -0.8768   -5.0716 C.ar      1 <0>         0.1743
      8 N1          3.8273   -0.9132   -4.2386 N.am      1 <0>        -0.6307
      9 C8          3.4270    0.3196   -3.8716 C.2       1 <0>         0.5183
     10 O1          2.4885    0.5922   -3.1533 O.2       1 <0>        -0.4237
     11 C9          4.3701    1.2926   -4.5249 C.3       1 <0>         0.0956
     12 C10         5.0857    2.1639   -3.4860 C.3       1 <0>        -0.1246
     13 H1          6.1411    2.3080   -3.7174 H         1 <0>         0.1791
     14 C11         4.2857    3.4963   -3.4731 C.3       1 <0>        -0.1399
     15 H2          4.9053    4.3651   -3.6953 H         1 <0>         0.1791
     16 C12         3.1476    3.2836   -4.4943 C.3       1 <0>         0.0384
     17 H3          2.2423    2.9473   -3.9888 H         1 <0>         0.1623
     18 C13         2.8781    4.5757   -5.2680 C.3       1 <0>        -0.1204
     19 C14         1.6680    4.3791   -6.1834 C.3       1 <0>        -0.1607
     20 C15         1.4025    5.6518   -6.9455 C.2       1 <0>         0.5171
     21 O2          2.1115    6.6207   -6.7735 O.2       1 <0>        -0.5322
     22 N2          0.3774    5.7133   -7.8182 N.am      1 <0>        -0.8500
     23 C16         3.7003    3.5374   -2.0795 C.2       1 <0>         0.5360
     24 O3          2.9997    4.4236   -1.6398 O.2       1 <0>        -0.4330
     25 N3          4.0767    2.4436   -1.4068 N.am      1 <0>        -0.5499
     26 C17         4.8579    1.6067   -2.0993 C.2       1 <0>         0.5316
     27 O4          5.3104    0.5629   -1.6807 O.2       1 <0>        -0.4375
     28 C18         3.6714    2.1864   -0.0227 C.3       1 <0>         0.1457
     29 C19         2.3774    1.4139   -0.0135 C.ar      1 <0>        -0.1606
     30 C20         1.1708    2.0889    0.0021 C.ar      1 <0>        -0.0518
     31 C21        -0.0167    1.3831    0.0096 C.ar      1 <0>        -0.1541
     32 C22         0.0021   -0.0041    0.0020 C.ar      1 <0>         0.1475
     33 C23         1.2141   -0.6789   -0.0132 C.ar      1 <0>        -0.2092
     34 C24         2.3989    0.0314   -0.0207 C.ar      1 <0>        -0.0449
     35 O5         -1.1648   -0.7006    0.0099 O.3       1 <0>        -0.3144
     36 C25        -1.0693   -2.1264    0.0013 C.3       1 <0>         0.0262
     37 Cl1         8.5175    0.0522   -7.6760 Cl        1 <0>        -0.0255
     38 H4          5.7820   -3.7296   -4.5635 H         1 <0>         0.0892
     39 H5          4.1897   -3.3904   -5.2831 H         1 <0>         0.0706
     40 H6          5.5348   -3.9343   -6.3143 H         1 <0>         0.0889
     41 H7          7.3218   -2.4201   -6.9205 H         1 <0>         0.1599
     42 H8          6.7238    1.7505   -6.2504 H         1 <0>         0.1523
     43 H9          3.3885   -1.7311   -3.9569 H         1 <0>         0.4372
     44 H10         2.6749    5.3841   -4.5657 H         1 <0>         0.1363
     45 H11         3.7514    4.8279   -5.8695 H         1 <0>         0.1088
     46 H12         1.8712    3.5707   -6.8857 H         1 <0>         0.0918
     47 H13         0.7946    4.1269   -5.5819 H         1 <0>         0.1135
     48 H14        -0.1896    4.9384   -7.9558 H         1 <0>         0.4044
     49 H15         0.2065    6.5325   -8.3088 H         1 <0>         0.4116
     50 H16         3.5324    3.1342    0.4973 H         1 <0>         0.1121
     51 H17         4.4446    1.6058    0.4804 H         1 <0>         0.1085
     52 H18         1.1567    3.1688    0.0080 H         1 <0>         0.1323
     53 H19        -0.9590    1.9108    0.0170 H         1 <0>         0.1338
     54 H20         1.2313   -1.7588   -0.0195 H         1 <0>         0.1284
     55 H21         3.3426   -0.4935   -0.0325 H         1 <0>         0.1223
     56 H22        -0.5412   -2.4498   -0.8957 H         1 <0>         0.0542
     57 H23        -0.5235   -2.4593    0.8841 H         1 <0>         0.0590
     58 H24        -2.0703   -2.5577    0.0089 H         1 <0>         0.1052
     59 N4          3.6557    2.2292   -5.3748 N.4       1 <0>        -0.4893
     60 H25         2.8769    1.7562   -5.8481 H         1 <0>         0.4427
     61 H26         4.2909    2.6280   -6.0761 H         1 <0>         0.4451
@<TRIPOS>BOND
     1    1    2 1
     2    1   38 1
     3    1   39 1
     4    1   40 1
     5    2    7 ar
     6    2    3 ar
     7    3    4 ar
     8    3   41 1
     9    4    5 ar
    10    4   37 1
    11    5    6 ar
    12    5   42 1
    13    6   11 1
    14    6    7 ar
    15    7    8 1
    16    8    9 am
    17    8   43 1
    18    9   10 2
    19    9   11 1
    20   11   12 1
    21   11   59 1
    22   12   13 1
    23   12   26 1
    24   12   14 1
    25   14   15 1
    26   14   16 1
    27   14   23 1
    28   16   17 1
    29   16   18 1
    30   16   59 1
    31   18   19 1
    32   18   44 1
    33   18   45 1
    34   19   20 1
    35   19   46 1
    36   19   47 1
    37   20   21 2
    38   20   22 am
    39   22   48 1
    40   22   49 1
    41   23   24 2
    42   23   25 am
    43   25   26 am
    44   25   28 1
    45   26   27 2
    46   28   29 1
    47   28   50 1
    48   28   51 1
    49   29   34 ar
    50   29   30 ar
    51   30   31 ar
    52   30   52 1
    53   31   32 ar
    54   31   53 1
    55   32   33 ar
    56   32   35 1
    57   33   34 ar
    58   33   54 1
    59   34   55 1
    60   35   36 1
    61   36   56 1
    62   36   57 1
    63   36   58 1
    64   59   60 1
    65   59   61 1
@<TRIPOS>MOLECULE
ZINC08790564
   54    59     0     0     0
SMALL
USER_CHARGES
2-(benzo[1,3]dioxol-5-ylmethyl-chloro-trioxo-BLAHyl)acetamide
@<TRIPOS>ATOM
      1 C1          2.3886   -4.8771   -0.5794 C.ar      1 <0>        -0.1102
      2 C2          2.5722   -3.5094   -0.4781 C.ar      1 <0>        -0.0374
      3 C3          1.8007   -2.6523   -1.2301 C.ar      1 <0>        -0.1877
      4 C4          0.8313   -3.1470   -2.0976 C.ar      1 <0>         0.1819
      5 C5          0.6528   -4.5255   -2.1944 C.ar      1 <0>        -0.0499
      6 C6          1.4292   -5.3808   -1.4381 C.ar      1 <0>        -0.0361
      7 Cl1        -0.5492   -5.1694   -3.2688 Cl        1 <0>        -0.0287
      8 N1          0.1806   -2.0944   -2.7456 N.am      1 <0>        -0.6296
      9 C7          0.6547   -0.8926   -2.3651 C.2       1 <0>         0.5265
     10 O1          0.2790    0.1918   -2.7577 O.2       1 <0>        -0.4334
     11 C8          1.7411   -1.1568   -1.3583 C.3       1 <0>         0.0994
     12 C9          1.4345   -0.4872   -0.0137 C.3       1 <0>        -0.1249
     13 H1          1.6693   -1.1285    0.8358 H         1 <0>         0.1816
     14 C10         2.2575    0.8313   -0.0177 C.3       1 <0>        -0.1409
     15 H2          2.9450    0.9046    0.8249 H         1 <0>         0.1796
     16 C11         2.9827    0.8399   -1.3805 C.3       1 <0>         0.0572
     17 H3          2.4101    1.4108   -2.1114 H         1 <0>         0.1683
     18 C12         4.3894    1.4230   -1.2313 C.3       1 <0>        -0.1630
     19 C13         5.0329    1.5359   -2.5893 C.2       1 <0>         0.5124
     20 O2          4.4263    1.1845   -3.5790 O.2       1 <0>        -0.5512
     21 N2          6.2827    2.0273   -2.7040 N.am      1 <0>        -0.8332
     22 C14         1.1936    1.9055    0.0009 C.2       1 <0>         0.5382
     23 O3          1.4039    3.0994    0.0075 O.2       1 <0>        -0.4345
     24 N3         -0.0161    1.3339    0.0094 N.am      1 <0>        -0.5506
     25 C15         0.0021   -0.0041    0.0020 C.2       1 <0>         0.5290
     26 O4         -0.9778   -0.7178    0.0066 O.2       1 <0>        -0.4320
     27 C16        -1.2589    2.1094    0.0196 C.3       1 <0>         0.1501
     28 C17        -1.6782    2.3676    1.4438 C.ar      1 <0>        -0.1252
     29 C18        -1.2358    3.5023    2.0982 C.ar      1 <0>        -0.0813
     30 C19        -1.6181    3.7438    3.4045 C.ar      1 <0>        -0.1030
     31 C20        -2.4456    2.8478    4.0618 C.ar      1 <0>         0.0529
     32 C21        -2.8908    1.7045    3.4027 C.ar      1 <0>         0.0313
     33 C22        -2.5089    1.4723    2.0913 C.ar      1 <0>        -0.0777
     34 O5         -3.6842    0.9912    4.2542 O.3       1 <0>        -0.3056
     35 C23        -4.0508    1.9111    5.2995 C.3       1 <0>         0.2118
     36 O6         -2.9601    2.8508    5.3261 O.3       1 <0>        -0.3041
     37 H4          2.9936   -5.5496    0.0106 H         1 <0>         0.1600
     38 H5          3.3218   -3.1139    0.1913 H         1 <0>         0.1494
     39 H6          1.2862   -6.4484   -1.5174 H         1 <0>         0.1609
     40 H7         -0.5304   -2.2150   -3.3944 H         1 <0>         0.4404
     41 H8          4.3266    2.4112   -0.7758 H         1 <0>         0.1577
     42 H9          4.9888    0.7686   -0.5985 H         1 <0>         0.1318
     43 H10         6.7679    2.3083   -1.9125 H         1 <0>         0.4122
     44 H11         6.6969    2.0999   -3.5781 H         1 <0>         0.4174
     45 H12        -1.0985    3.0596   -0.4899 H         1 <0>         0.1182
     46 H13        -2.0408    1.5495   -0.4935 H         1 <0>         0.1124
     47 H14        -0.5905    4.2017    1.5876 H         1 <0>         0.1442
     48 H15        -1.2713    4.6312    3.9132 H         1 <0>         0.1430
     49 H16        -2.8568    0.5892    1.5762 H         1 <0>         0.1390
     50 H17        -4.9854    2.4159    5.0551 H         1 <0>         0.0910
     51 H18        -4.1354    1.3920    6.2542 H         1 <0>         0.1384
     52 N4          3.0274   -0.5729   -1.7658 N.4       1 <0>        -0.4893
     53 H19         3.1508   -0.6600   -2.7814 H         1 <0>         0.4527
     54 H20         3.8007   -1.0475   -1.2852 H         1 <0>         0.4405
@<TRIPOS>BOND
     1    1    6 ar
     2    1    2 ar
     3    1   37 1
     4    2    3 ar
     5    2   38 1
     6    3   11 1
     7    3    4 ar
     8    4    5 ar
     9    4    8 1
    10    5    6 ar
    11    5    7 1
    12    6   39 1
    13    8    9 am
    14    8   40 1
    15    9   10 2
    16    9   11 1
    17   11   12 1
    18   11   52 1
    19   12   13 1
    20   12   25 1
    21   12   14 1
    22   14   15 1
    23   14   16 1
    24   14   22 1
    25   16   17 1
    26   16   18 1
    27   16   52 1
    28   18   19 1
    29   18   41 1
    30   18   42 1
    31   19   20 2
    32   19   21 am
    33   21   43 1
    34   21   44 1
    35   22   23 2
    36   22   24 am
    37   24   25 am
    38   24   27 1
    39   25   26 2
    40   27   28 1
    41   27   45 1
    42   27   46 1
    43   28   33 ar
    44   28   29 ar
    45   29   30 ar
    46   29   47 1
    47   30   31 ar
    48   30   48 1
    49   31   36 1
    50   31   32 ar
    51   32   33 ar
    52   32   34 1
    53   33   49 1
    54   34   35 1
    55   35   36 1
    56   35   50 1
    57   35   51 1
    58   52   53 1
    59   52   54 1
@<TRIPOS>MOLECULE
ZINC12895494
   57    61     0     0     0
SMALL
USER_CHARGES
5-[(1R,3R)-3-ethyl-2,3,4,9-tetrahydro-1H-pyrido[3,4-b]indol-1-yl]-6-hydroxy-3-(4-methoxyphenyl)-2-thioxo-1H-pyrimidin-4-one
@<TRIPOS>ATOM
      1 C1          8.0232    4.4063    1.9024 C.3       1 <0>        -0.1733
      2 C2          6.6415    4.9507    1.5346 C.3       1 <0>        -0.1499
      3 C3          6.5867    5.2290    0.0311 C.3       1 <0>         0.0349
      4 H1          7.4039    5.8954   -0.2451 H         1 <0>         0.1494
      5 C4          5.2462    5.8907   -0.3185 C.3       1 <0>        -0.0653
      6 C5          4.1667    4.8469   -0.1877 C.2       1 <0>        -0.1428
      7 C6          2.7239    5.0319   -0.1055 C.ar      1 <0>        -0.0942
      8 C7          1.8774    6.1430   -0.1176 C.ar      1 <0>        -0.0675
      9 C8          0.5261    5.9701   -0.0194 C.ar      1 <0>        -0.1325
     10 C9         -0.0163    4.6966    0.0873 C.ar      1 <0>        -0.0796
     11 C10         0.7988    3.5864    0.1069 C.ar      1 <0>        -0.1299
     12 C11         2.1777    3.7380    0.0083 C.ar      1 <0>         0.1130
     13 N1          3.2294    2.8467   -0.0051 N.pl3     1 <0>        -0.5666
     14 H2          3.1434    1.8827    0.0598 H         1 <0>         0.4148
     15 C12         4.4091    3.5217   -0.1230 C.2       1 <0>         0.0402
     16 C13         5.8018    2.9375   -0.1793 C.3       1 <0>         0.2144
     17 H3          6.1176    2.6442    0.8218 H         1 <0>         0.1638
     18 C14         5.8114    1.7352   -1.0879 C.2       1 <0>        -0.3856
     19 C15         6.0708    0.4931   -0.5882 C.2       1 <0>         0.4660
     20 N2          6.0739   -0.5871   -1.4332 N.pl3     1 <0>        -0.6069
     21 H4          6.2576   -1.4726   -1.0824 H         1 <0>         0.4554
     22 C16         5.8235   -0.4269   -2.7456 C.2       1 <0>         0.4897
     23 S1          5.8341   -1.7918   -3.7789 S.2       1 <0>        -0.4058
     24 N3          5.5654    0.7903   -3.2578 N.am      1 <0>        -0.4475
     25 C17         5.5472    1.8775   -2.4615 C.2       1 <0>         0.5628
     26 O1          5.3082    2.9773   -2.9298 O.2       1 <0>        -0.4831
     27 C18         5.3073    0.9277   -4.6294 C.ar      1 <0>         0.0556
     28 C19         6.3524    1.1638   -5.5124 C.ar      1 <0>        -0.0361
     29 C20         6.0984    1.2938   -6.8634 C.ar      1 <0>        -0.1973
     30 C21         4.7978    1.1996   -7.3371 C.ar      1 <0>         0.1647
     31 C22         3.7525    0.9694   -6.4545 C.ar      1 <0>        -0.1382
     32 C23         4.0060    0.8335   -5.1041 C.ar      1 <0>        -0.0359
     33 O2          4.5476    1.3333   -8.6667 O.3       1 <0>        -0.3074
     34 C24         5.6711    1.5687   -9.5178 C.3       1 <0>         0.0217
     35 O3          6.3229    0.3282    0.7277 O.3       1 <0>        -0.4267
     36 H5          8.7847    5.1412    1.6410 H         1 <0>         0.0743
     37 H6          8.0623    4.2080    2.9735 H         1 <0>         0.0826
     38 H7          8.2072    3.4820    1.3548 H         1 <0>         0.0476
     39 H8          6.4575    5.8750    2.0822 H         1 <0>         0.1147
     40 H9          5.8801    4.2158    1.7960 H         1 <0>         0.0885
     41 H10         5.2754    6.2649   -1.3418 H         1 <0>         0.1029
     42 H11         5.0499    6.7126    0.3700 H         1 <0>         0.1210
     43 H12         2.2906    7.1370   -0.2049 H         1 <0>         0.1271
     44 H13        -0.1260    6.8309   -0.0289 H         1 <0>         0.1316
     45 H14        -1.0870    4.5755    0.1597 H         1 <0>         0.1343
     46 H15         0.3677    2.6001    0.1942 H         1 <0>         0.1251
     47 H16         7.3643    1.2416   -5.1432 H         1 <0>         0.1273
     48 H17         6.9118    1.4730   -7.5509 H         1 <0>         0.1430
     49 H18         2.7403    0.8961   -6.8239 H         1 <0>         0.1463
     50 H19         3.1922    0.6536   -4.4172 H         1 <0>         0.1304
     51 H20         6.1663    2.4925   -9.2187 H         1 <0>         0.0602
     52 H21         6.3712    0.7375   -9.4337 H         1 <0>         0.0620
     53 H22         5.3328    1.6557  -10.5504 H         1 <0>         0.1088
     54 H23         6.4947   -0.5884    0.9834 H         1 <0>         0.4353
     55 N4          6.7242    3.9623   -0.7172 N.4       1 <0>        -0.5106
     56 H24         7.6901    3.6241   -0.6339 H         1 <0>         0.4319
     57 H25         6.5041    4.1288   -1.7062 H         1 <0>         0.4410
@<TRIPOS>BOND
     1    1    2 1
     2    1   36 1
     3    1   37 1
     4    1   38 1
     5    2    3 1
     6    2   39 1
     7    2   40 1
     8    3    4 1
     9    3    5 1
    10    3   55 1
    11    5    6 1
    12    5   41 1
    13    5   42 1
    14    6   15 2
    15    6    7 1
    16    7   12 ar
    17    7    8 ar
    18    8    9 ar
    19    8   43 1
    20    9   10 ar
    21    9   44 1
    22   10   11 ar
    23   10   45 1
    24   11   12 ar
    25   11   46 1
    26   12   13 1
    27   13   14 1
    28   13   15 1
    29   15   16 1
    30   16   17 1
    31   16   18 1
    32   16   55 1
    33   18   25 1
    34   18   19 2
    35   19   20 1
    36   19   35 1
    37   20   21 1
    38   20   22 1
    39   22   23 2
    40   22   24 1
    41   24   25 am
    42   24   27 1
    43   25   26 2
    44   27   32 ar
    45   27   28 ar
    46   28   29 ar
    47   28   47 1
    48   29   30 ar
    49   29   48 1
    50   30   31 ar
    51   30   33 1
    52   31   32 ar
    53   31   49 1
    54   32   50 1
    55   33   34 1
    56   34   51 1
    57   34   52 1
    58   34   53 1
    59   35   54 1
    60   55   56 1
    61   55   57 1
@<TRIPOS>MOLECULE
ZINC39656195
   77    82     0     0     0
SMALL
USER_CHARGES

@<TRIPOS>ATOM
      1 C1          1.0171    5.1254    2.2994 C.3       1 <0>        -0.1134
      2 C2          0.1628    3.9154    2.0217 C.ar      1 <0>        -0.1044
      3 C3         -0.7179    3.4572    2.9915 C.ar      1 <0>        -0.0938
      4 C4         -1.5077    2.3526    2.7582 C.ar      1 <0>        -0.1238
      5 C5         -1.4237    1.6885    1.5390 C.ar      1 <0>         0.0906
      6 N1         -2.0601    0.5860    1.0141 N.pl3     1 <0>        -0.5931
      7 C6         -1.6028    0.3442   -0.2527 C.2       1 <0>         0.0637
      8 C7         -0.6773    1.2571   -0.5873 C.2       1 <0>        -0.1830
      9 C8         -0.5296    2.1573    0.5589 C.ar      1 <0>        -0.0963
     10 C9          0.2574    3.2814    0.8147 C.ar      1 <0>        -0.0770
     11 C10         0.0687    1.3399   -1.8941 C.3       1 <0>        -0.0463
     12 C11         1.4487    0.6988   -1.7350 C.3       1 <0>         0.1213
     13 N2          2.2165    0.8797   -2.9696 N.am      1 <0>        -0.7327
     14 C12         3.4305    0.3087   -3.0979 C.2       1 <0>         0.5122
     15 O1          3.9224   -0.2871   -2.1630 O.2       1 <0>        -0.5090
     16 C13         4.1769    0.4105   -4.4032 C.3       1 <0>        -0.1142
     17 H1          3.9595    1.3608   -4.8907 H         1 <0>         0.1173
     18 C14         5.6966    0.2624   -4.1668 C.3       1 <0>         0.1202
     19 N3          5.9746   -1.1734   -4.4066 N.am      1 <0>        -0.6133
     20 C15         5.1222   -1.5250   -5.5675 C.3       1 <0>         0.1012
     21 C16         3.8045   -0.7622   -5.3258 C.3       1 <0>        -0.0717
     22 C17         3.2470   -0.2393   -6.6462 C.3       1 <0>        -0.1351
     23 C18         2.8296   -1.4230   -7.5234 C.3       1 <0>        -0.0104
     24 N4          1.8158   -2.2203   -6.8226 N.4       1 <0>        -0.5047
     25 C19         2.3889   -2.7962   -5.6000 C.3       1 <0>        -0.0086
     26 C20         2.7876   -1.6706   -4.6415 C.3       1 <0>        -0.1481
     27 C21         6.8133   -1.9777   -3.7238 C.2       1 <0>         0.6246
     28 O2          7.3907   -1.5582   -2.7375 O.2       1 <0>        -0.5122
     29 C22         7.0230   -3.3124   -4.1541 C.2       1 <0>        -0.3446
     30 C23         7.1483   -4.3922   -3.3639 C.2       1 <0>         0.1578
     31 O3          7.3475   -5.5163   -4.0779 O.3       1 <0>        -0.1435
     32 N5          6.9450   -5.2505   -5.4701 N.3       1 <0>        -0.4313
     33 C24         7.1404   -3.7843   -5.5915 C.3       1 <0>         0.1337
     34 H2          6.3608   -3.3390   -6.2096 H         1 <0>         0.0973
     35 C25         8.5069   -3.4742   -6.1461 C.ar      1 <0>        -0.0810
     36 C26         9.6355   -3.9708   -5.5210 C.ar      1 <0>        -0.0822
     37 C27        10.8890   -3.6864   -6.0297 C.ar      1 <0>        -0.1159
     38 C28        11.0139   -2.9058   -7.1638 C.ar      1 <0>        -0.1079
     39 C29         9.8853   -2.4100   -7.7893 C.ar      1 <0>        -0.1204
     40 C30         8.6316   -2.6979   -7.2831 C.ar      1 <0>        -0.1097
     41 C31         7.0744   -4.3501   -1.8594 C.3       1 <0>        -0.1198
     42 H3          1.9591    4.8099    2.7479 H         1 <0>         0.0695
     43 H4          1.2173    5.6510    1.3657 H         1 <0>         0.0644
     44 H5          0.4929    5.7906    2.9856 H         1 <0>         0.0673
     45 H6         -0.7846    3.9715    3.9389 H         1 <0>         0.1282
     46 H7         -2.1895    2.0033    3.5195 H         1 <0>         0.1226
     47 H8         -1.9371   -0.4617   -0.8892 H         1 <0>         0.1667
     48 H9         -2.7320    0.0589    1.4740 H         1 <0>         0.4184
     49 H10         0.9418    3.6462    0.0631 H         1 <0>         0.1184
     50 H11        -0.4907    0.8114   -2.6659 H         1 <0>         0.0708
     51 H12         0.1845    2.3852   -2.1807 H         1 <0>         0.0770
     52 H13         1.9760    1.1721   -0.9067 H         1 <0>         0.0727
     53 H14         1.3335   -0.3658   -1.5315 H         1 <0>         0.0692
     54 H15         1.8510    1.4104   -3.6946 H         1 <0>         0.3983
     55 H16         6.2529    0.8800   -4.8719 H         1 <0>         0.0862
     56 H17         5.9499    0.5324   -3.1416 H         1 <0>         0.1032
     57 H18         5.5878   -1.1936   -6.4956 H         1 <0>         0.0858
     58 H19         4.9405   -2.5995   -5.5945 H         1 <0>         0.0787
     59 H20         2.3803    0.3921   -6.4507 H         1 <0>         0.0997
     60 H21         4.0128    0.3419   -7.1598 H         1 <0>         0.1232
     61 H22         2.4154   -1.0520   -8.4609 H         1 <0>         0.1418
     62 H23         3.7000   -2.0449   -7.7322 H         1 <0>         0.1307
     63 H24         1.0340   -1.6302   -6.5803 H         1 <0>         0.4293
     64 H25         1.6499   -3.4374   -5.1196 H         1 <0>         0.1392
     65 H26         3.2699   -3.3854   -5.8546 H         1 <0>         0.1280
     66 H27         3.2295   -2.0984   -3.7416 H         1 <0>         0.1214
     67 H28         1.9042   -1.0909   -4.3735 H         1 <0>         0.1003
     68 H29         5.9780   -5.4965   -5.6202 H         1 <0>         0.3472
     69 H30         9.5379   -4.5806   -4.6350 H         1 <0>         0.1214
     70 H31        11.7707   -4.0737   -5.5410 H         1 <0>         0.1268
     71 H32        11.9932   -2.6830   -7.5608 H         1 <0>         0.1264
     72 H33         9.9829   -1.7999   -8.6751 H         1 <0>         0.1252
     73 H34         7.7497   -2.3137   -7.7739 H         1 <0>         0.1142
     74 H35         6.0411   -4.4913   -1.5423 H         1 <0>         0.0946
     75 H36         7.6940   -5.1443   -1.4428 H         1 <0>         0.0928
     76 H37         7.4345   -3.3844   -1.5047 H         1 <0>         0.1134
     77 H38         1.4982   -2.9639   -7.4262 H         1 <0>         0.4343
@<TRIPOS>BOND
     1    1   42 1
     2    1   43 1
     3    1   44 1
     4    1    2 1
     5    2    3 ar
     6    2   10 ar
     7    3    4 ar
     8    3   45 1
     9    4    5 ar
    10    4   46 1
    11    5    6 1
    12    5    9 ar
    13    6   48 1
    14    6    7 1
    15    7    8 2
    16    7   47 1
    17    8    9 1
    18    8   11 1
    19    9   10 ar
    20   10   49 1
    21   11   12 1
    22   11   50 1
    23   11   51 1
    24   12   13 1
    25   12   52 1
    26   12   53 1
    27   13   14 am
    28   13   54 1
    29   14   15 2
    30   14   16 1
    31   16   17 1
    32   16   21 1
    33   16   18 1
    34   18   19 1
    35   18   55 1
    36   18   56 1
    37   19   20 1
    38   19   27 am
    39   20   21 1
    40   20   57 1
    41   20   58 1
    42   21   26 1
    43   21   22 1
    44   22   23 1
    45   22   59 1
    46   22   60 1
    47   23   24 1
    48   23   61 1
    49   23   62 1
    50   24   25 1
    51   24   63 1
    52   24   77 1
    53   25   26 1
    54   25   64 1
    55   25   65 1
    56   26   66 1
    57   26   67 1
    58   27   28 2
    59   27   29 1
    60   29   33 1
    61   29   30 2
    62   30   31 1
    63   30   41 1
    64   31   32 1
    65   32   33 1
    66   32   68 1
    67   33   34 1
    68   33   35 1
    69   35   40 ar
    70   35   36 ar
    71   36   37 ar
    72   36   69 1
    73   37   38 ar
    74   37   70 1
    75   38   39 ar
    76   38   71 1
    77   39   40 ar
    78   39   72 1
    79   40   73 1
    80   41   74 1
    81   41   75 1
    82   41   76 1
@<TRIPOS>MOLECULE
ZINC10645182
   53    55     0     0     0
SMALL
USER_CHARGES

@<TRIPOS>ATOM
      1 C1          1.4361    1.1939   -0.0477 C.3       1 <0>        -0.1159
      2 C2          1.5151   -0.3103   -0.0955 C.ar      1 <0>        -0.0955
      3 C3          1.7373   -0.9516   -1.3005 C.ar      1 <0>        -0.1042
      4 C4          1.8102   -2.3298   -1.3476 C.ar      1 <0>        -0.1352
      5 C5          1.6605   -3.0719   -0.1831 C.ar      1 <0>         0.1447
      6 C6          1.4379   -2.4250    1.0251 C.ar      1 <0>        -0.1110
      7 C7          1.3709   -1.0458    1.0663 C.ar      1 <0>        -0.1001
      8 C8          1.2749   -3.2262    2.2910 C.3       1 <0>        -0.1158
      9 N1          1.7334   -4.4686   -0.2276 N.am      1 <0>        -0.6661
     10 C9          1.5409   -5.1167   -1.3935 C.2       1 <0>         0.6976
     11 O1          1.4013   -4.4864   -2.4233 O.2       1 <0>        -0.5043
     12 N2          1.5032   -6.4637   -1.4175 N.am      1 <0>        -0.6847
     13 C10         1.3107   -7.1118   -2.5835 C.2       1 <0>         0.5212
     14 O2          1.1715   -6.4831   -3.6107 O.2       1 <0>        -0.4385
     15 C11         1.2685   -8.6180   -2.6103 C.3       1 <0>         0.0547
     16 O3          1.0548   -9.0647   -3.9508 O.3       1 <0>        -0.3249
     17 C12         0.9910  -10.3983   -4.1494 C.2       1 <0>         0.5677
     18 O4          1.1139  -11.1603   -3.2084 O.2       1 <0>        -0.4953
     19 C13         0.7814  -10.9103   -5.4517 C.2       1 <0>        -0.3131
     20 C14         0.6828  -12.2275   -5.8464 C.2       1 <0>         0.3144
     21 C15         0.4632  -12.5104   -7.2563 C.ar      1 <0>        -0.1584
     22 C16         0.3301  -13.7680   -7.8960 C.ar      1 <0>         0.1172
     23 C17         0.1259  -13.8063   -9.2550 C.ar      1 <0>        -0.1725
     24 C18         0.0521  -12.6301   -9.9868 C.ar      1 <0>         0.2386
     25 N3          0.1768  -11.4618   -9.3884 N.ar      1 <0>        -0.4330
     26 C19         0.3725  -11.3729   -8.0902 C.ar      1 <0>         0.0712
     27 S1          0.5738  -10.0070   -6.9736 S.3       1 <0>         0.3108
     28 C20        -0.1715  -12.6881  -11.4760 C.3       1 <0>        -0.1488
     29 C21         0.4116  -15.0442   -7.0986 C.3       1 <0>        -0.1672
     30 N4          0.7906  -13.2567   -4.9229 N.pl3     1 <0>        -0.8149
     31 H1          2.4316    1.6049    0.1203 H         1 <0>         0.0714
     32 H2          1.0438    1.5674   -0.9936 H         1 <0>         0.0672
     33 H3          0.7759    1.4975    0.7647 H         1 <0>         0.0668
     34 H4          1.8536   -0.3740   -2.2056 H         1 <0>         0.1263
     35 H5          1.9831   -2.8301   -2.2890 H         1 <0>         0.1642
     36 H6          1.2019   -0.5418    2.0064 H         1 <0>         0.1279
     37 H7          2.2494   -3.3713    2.7572 H         1 <0>         0.0731
     38 H8          0.6196   -2.6909    2.9780 H         1 <0>         0.0751
     39 H9          0.8378   -4.1961    2.0533 H         1 <0>         0.0597
     40 H10         1.9224   -4.9704    0.5807 H         1 <0>         0.4105
     41 H11         1.6145   -6.9668   -0.5957 H         1 <0>         0.4149
     42 H12         2.2145   -9.0146   -2.2417 H         1 <0>         0.1151
     43 H13         0.4551   -8.9701   -1.9759 H         1 <0>         0.1150
     44 H14         0.0227  -14.7575   -9.7559 H         1 <0>         0.1919
     45 H15        -1.2415  -12.6715  -11.6837 H         1 <0>         0.1259
     46 H16         0.3036  -11.8283  -11.9485 H         1 <0>         0.1052
     47 H17         0.2615  -13.6062  -11.8730 H         1 <0>         0.1253
     48 H18        -0.5788  -15.3022   -6.7236 H         1 <0>         0.1190
     49 H19         0.7794  -15.8481   -7.7362 H         1 <0>         0.1117
     50 H20         1.0931  -14.9053   -6.2594 H         1 <0>         0.1007
     51 H21         1.2728  -13.1153   -4.0932 H         1 <0>         0.4304
     52 H22         0.3838  -14.1178   -5.1067 H         1 <0>         0.4128
     53 H23         0.1231  -10.6501   -9.9167 H         1 <0>         0.4516
@<TRIPOS>BOND
     1    1    2 1
     2    1   31 1
     3    1   32 1
     4    1   33 1
     5    2    7 ar
     6    2    3 ar
     7    3    4 ar
     8    3   34 1
     9    4    5 ar
    10    4   35 1
    11    5    6 ar
    12    5    9 1
    13    6    7 ar
    14    6    8 1
    15    7   36 1
    16    8   37 1
    17    8   38 1
    18    8   39 1
    19    9   10 am
    20    9   40 1
    21   10   11 2
    22   10   12 am
    23   12   13 am
    24   12   41 1
    25   13   14 2
    26   13   15 1
    27   15   16 1
    28   15   42 1
    29   15   43 1
    30   16   17 1
    31   17   18 2
    32   17   19 1
    33   19   27 1
    34   19   20 2
    35   20   21 1
    36   20   30 1
    37   21   26 ar
    38   21   22 ar
    39   22   23 ar
    40   22   29 1
    41   23   24 ar
    42   23   44 1
    43   24   25 ar
    44   24   28 1
    45   25   26 ar
    46   25   53 1
    47   26   27 1
    48   28   45 1
    49   28   46 1
    50   28   47 1
    51   29   48 1
    52   29   49 1
    53   29   50 1
    54   30   51 1
    55   30   52 1
@<TRIPOS>MOLECULE
ZINC03116795
   35    36     0     0     0
SMALL
USER_CHARGES
5-[2-[[3-chloro-5-(trifluoromethyl)-2-pyridyl]amino]ethylamino]-1H-pyrimidine-2,4-dione
@<TRIPOS>ATOM
      1 C1         -0.3626    1.3319    4.8554 C.ar      1 <0>         0.0958
      2 C2          0.7812    0.5463    4.9159 C.ar      1 <0>        -0.2303
      3 C3          1.3806    0.1332    3.7435 C.ar      1 <0>         0.2239
      4 C4         -0.2068    1.2220    2.4700 C.ar      1 <0>         0.4818
      5 C5         -0.8600    1.6791    3.6116 C.ar      1 <0>        -0.1321
      6 Cl1        -2.2823    2.6652    3.4764 Cl        1 <0>         0.0399
      7 N1         -0.6984    1.5583    1.2133 N.pl3     1 <0>        -0.6734
      8 C6         -0.0127    1.0858    0.0080 C.3       1 <0>         0.0665
      9 C7         -0.7527    1.5927   -1.2315 C.3       1 <0>         0.1213
     10 N2         -0.0670    1.1202   -2.4368 N.pl3     1 <0>        -0.7297
     11 C8         -0.5644    1.4603   -3.7081 C.2       1 <0>         0.0275
     12 C9         -1.6784    2.2187   -3.8290 C.2       1 <0>         0.0683
     13 N3         -2.1446    2.5443   -5.0796 N.am      1 <0>        -0.6298
     14 H1         -2.9631    3.1114   -5.1710 H         1 <0>         0.4478
     15 C10        -1.5101    2.1072   -6.1824 C.2       1 <0>         0.6914
     16 O1         -1.9433    2.4039   -7.2794 O.2       1 <0>        -0.5331
     17 N4         -0.4035    1.3471   -6.0908 N.am      1 <0>        -0.6531
     18 H2          0.0536    1.0321   -6.9226 H         1 <0>         0.4466
     19 C11         0.0924    1.0078   -4.8839 C.2       1 <0>         0.5562
     20 O2          1.0938    0.3195   -4.8022 O.2       1 <0>        -0.5092
     21 C12         1.3616    0.1486    6.2485 C.3       1 <0>         0.5307
     22 F1          2.5022   -0.6356    6.0451 F         1 <0>        -0.1626
     23 F2          1.7078    1.2974    6.9680 F         1 <0>        -0.1545
     24 F3          0.4137   -0.5852    6.9697 F         1 <0>        -0.1545
     25 H3         -0.8502    1.6679    5.7586 H         1 <0>         0.1960
     26 H4          2.2699   -0.4781    3.7864 H         1 <0>         0.2193
     27 H5         -1.4954    2.1056    1.1349 H         1 <0>         0.4413
     28 H6          0.0021   -0.0041    0.0020 H         1 <0>         0.1032
     29 H7          1.0099    1.4631    0.0003 H         1 <0>         0.1032
     30 H8         -1.7753    1.2154   -1.2238 H         1 <0>         0.0795
     31 H9         -0.7675    2.6825   -1.2255 H         1 <0>         0.0796
     32 H10         0.7300    0.5728   -2.3584 H         1 <0>         0.4135
     33 H11        -2.1957    2.5690   -2.9480 H         1 <0>         0.1703
     34 N5          0.9172    0.4500    2.5045 N.ar      1 <0>        -0.5230
     35 H12         1.3843    0.1281    1.6487 H         1 <0>         0.4819
@<TRIPOS>BOND
     1    1    5 ar
     2    1    2 ar
     3    1   25 1
     4    2    3 ar
     5    2   21 1
     6    3   26 1
     7    3   34 ar
     8    4    5 ar
     9    4    7 1
    10    4   34 ar
    11    5    6 1
    12    7    8 1
    13    7   27 1
    14    8    9 1
    15    8   28 1
    16    8   29 1
    17    9   10 1
    18    9   30 1
    19    9   31 1
    20   10   11 1
    21   10   32 1
    22   11   19 1
    23   11   12 2
    24   12   13 1
    25   12   33 1
    26   13   14 1
    27   13   15 am
    28   15   16 2
    29   15   17 am
    30   17   18 1
    31   17   19 am
    32   19   20 2
    33   21   22 1
    34   21   23 1
    35   21   24 1
    36   34   35 1
@<TRIPOS>MOLECULE
ZINC31829401
   53    55     0     0     0
SMALL
USER_CHARGES
9H-fluoren-9-ylmethyl N-[(1S)-5-amino-1-(hydroxymethyl)pentyl]carbamate
@<TRIPOS>ATOM
      1 C1         -0.0126    1.0758    0.0080 C.ar      1 <0>        -0.1156
      2 C2         -1.2214    1.7484    0.0174 C.ar      1 <0>        -0.1186
      3 C3         -1.2455    3.1317    0.0305 C.ar      1 <0>        -0.0898
      4 C4         -0.0641    3.8427    0.0233 C.ar      1 <0>        -0.0854
      5 C5          1.1573    3.1750    0.0081 C.ar      1 <0>        -0.0522
      6 C6          1.1740    1.7789    0.0004 C.ar      1 <0>        -0.0952
      7 C7          2.2620    4.1658    0.0023 C.ar      1 <0>        -0.0535
      8 C8          3.6480    3.9977   -0.0128 C.ar      1 <0>        -0.0939
      9 C9          4.4757    5.1009   -0.0150 C.ar      1 <0>        -0.1111
     10 C10         3.9383    6.3757   -0.0028 C.ar      1 <0>        -0.1085
     11 C11         2.5659    6.5498    0.0115 C.ar      1 <0>        -0.0950
     12 C12         1.7308    5.4524    0.0140 C.ar      1 <0>        -0.0909
     13 C13         0.2274    5.3234    0.0280 C.3       1 <0>        -0.0058
     14 C14        -0.3695    5.9817   -1.2175 C.3       1 <0>         0.1058
     15 O1         -1.8187    5.9541   -1.1321 O.3       1 <0>        -0.3671
     16 C15        -2.5018    6.4981   -2.1569 C.2       1 <0>         0.6487
     17 O2         -1.9033    6.9826   -3.0969 O.2       1 <0>        -0.5737
     18 N1         -3.8495    6.5051   -2.1402 N.am      1 <0>        -0.7136
     19 C16        -4.5928    7.0970   -3.2553 C.3       1 <0>         0.1705
     20 H1         -4.0217    6.8894   -4.1722 H         1 <0>         0.1038
     21 C17        -5.9844    6.4659   -3.3327 C.3       1 <0>        -0.1204
     22 C18        -5.8525    4.9809   -3.6770 C.3       1 <0>        -0.1229
     23 C19        -7.2441    4.3498   -3.7544 C.3       1 <0>        -0.1507
     24 C20        -7.1121    2.8649   -4.0988 C.3       1 <0>        -0.0045
     25 N2         -8.4483    2.2589   -4.1731 N.4       1 <0>        -0.6879
     26 C21        -4.7282    8.6049   -3.0347 C.3       1 <0>         0.0682
     27 O3         -5.5288    8.8468   -1.8760 O.3       1 <0>        -0.6017
     28 H2          0.0021   -0.0041    0.0020 H         1 <0>         0.1275
     29 H3         -2.1476    1.1929    0.0184 H         1 <0>         0.1242
     30 H4         -2.1902    3.6549    0.0423 H         1 <0>         0.1251
     31 H5          2.1154    1.2499   -0.0111 H         1 <0>         0.1252
     32 H6          4.0717    3.0043   -0.0216 H         1 <0>         0.1259
     33 H7          5.5476    4.9691   -0.0265 H         1 <0>         0.1310
     34 H8          4.5911    7.2361   -0.0048 H         1 <0>         0.1319
     35 H9          2.1483    7.5457    0.0209 H         1 <0>         0.1271
     36 H10        -0.2042    5.8100    0.9151 H         1 <0>         0.1148
     37 H11        -0.0257    7.0247   -1.2814 H         1 <0>         0.0809
     38 H12        -0.0445    5.4330   -2.1137 H         1 <0>         0.0763
     39 H13        -4.3913    6.0664   -1.2893 H         1 <0>         0.4272
     40 H14        -6.4904    6.5737   -2.3620 H         1 <0>         0.0861
     41 H15        -6.5737    6.9720   -4.1115 H         1 <0>         0.0843
     42 H16        -5.3465    4.8731   -4.6477 H         1 <0>         0.0746
     43 H17        -5.2632    4.4748   -2.8982 H         1 <0>         0.0764
     44 H18        -7.7501    4.4575   -2.7836 H         1 <0>         0.0874
     45 H19        -7.8335    4.8559   -4.5332 H         1 <0>         0.0867
     46 H20        -6.6061    2.7572   -5.0696 H         1 <0>         0.1277
     47 H21        -6.5227    2.3588   -3.3200 H         1 <0>         0.1279
     48 H22        -8.3535    1.1913   -4.4207 H         1 <0>         0.4596
     49 H23        -9.0376    2.7650   -4.9519 H         1 <0>         0.4559
     50 H24        -3.7307    9.0453   -2.8896 H         1 <0>         0.0513
     51 H25        -5.2068    9.0625   -3.9131 H         1 <0>         0.0539
     52 H26        -5.7377    9.8787   -1.5574 H         1 <0>         0.4161
     53 H27        -8.9542    2.3666   -3.2023 H         1 <0>         0.4559
@<TRIPOS>BOND
     1    1    6 ar
     2    1    2 ar
     3    1   28 1
     4    2    3 ar
     5    2   29 1
     6    3    4 ar
     7    3   30 1
     8    4   13 1
     9    4    5 ar
    10    5    6 ar
    11    5    7 1
    12    6   31 1
    13    7   12 ar
    14    7    8 ar
    15    8    9 ar
    16    8   32 1
    17    9   10 ar
    18    9   33 1
    19   10   11 ar
    20   10   34 1
    21   11   12 ar
    22   11   35 1
    23   12   13 1
    24   13   14 1
    25   13   36 1
    26   14   15 1
    27   14   37 1
    28   14   38 1
    29   15   16 1
    30   16   17 2
    31   16   18 am
    32   18   19 1
    33   18   39 1
    34   19   20 1
    35   19   21 1
    36   19   26 1
    37   21   22 1
    38   21   40 1
    39   21   41 1
    40   22   23 1
    41   22   42 1
    42   22   43 1
    43   23   24 1
    44   23   44 1
    45   23   45 1
    46   24   25 1
    47   24   46 1
    48   24   47 1
    49   25   48 1
    50   25   49 1
    51   25   53 1
    52   26   27 1
    53   26   50 1
    54   26   51 1
    55   27   52 1
@<TRIPOS>MOLECULE
ZINC40796620
   53    55     0     0     0
SMALL
USER_CHARGES

@<TRIPOS>ATOM
      1 C1          1.8402    1.3925    2.1429 C.3       1 <0>        -0.1885
      2 C2          1.5663   -0.0855    1.8574 C.3       1 <0>         0.0904
      3 C3          2.5577   -0.9485    2.6406 C.3       1 <0>        -0.1473
      4 C4          0.1391   -0.4318    2.2861 C.3       1 <0>        -0.1438
      5 N1          1.7220   -0.3434    0.4196 N.3       1 <0>        -0.4435
      6 N2          2.9879   -0.0441    0.0027 N.pl3     1 <0>        -0.5295
      7 C5          3.3402   -0.2194   -1.3300 C.ar      1 <0>         0.4278
      8 C6          4.6331    0.0778   -1.7668 C.ar      1 <0>         0.1194
      9 C7          4.9338   -0.1164   -3.1156 C.ar      1 <0>         0.4071
     10 N3          3.9843   -0.5740   -3.9285 N.ar      1 <0>        -0.4466
     11 C8          2.7766   -0.8422   -3.4758 C.ar      1 <0>         0.3349
     12 N4          2.4527   -0.6782   -2.2088 N.ar      1 <0>        -0.5074
     13 N5          6.2062    0.1644   -3.6031 N.pl3     1 <0>        -0.5574
     14 C9          7.2577   -0.8535   -3.5354 C.3       1 <0>         0.1701
     15 C10         7.2340   -1.6844   -4.7924 C.ar      1 <0>        -0.1191
     16 C11         6.4506   -2.8217   -4.8545 C.ar      1 <0>        -0.0976
     17 C12         6.4290   -3.5840   -6.0075 C.ar      1 <0>        -0.1217
     18 C13         7.1903   -3.2087   -7.0985 C.ar      1 <0>        -0.1055
     19 C14         7.9730   -2.0710   -7.0368 C.ar      1 <0>        -0.1209
     20 C15         7.9914   -1.3064   -5.8853 C.ar      1 <0>        -0.0884
     21 C16         6.4800    1.4119   -4.1550 C.ar      1 <0>         0.3935
     22 C17         5.4405    2.3075   -4.3843 C.ar      1 <0>        -0.2199
     23 C18         5.7270    3.5444   -4.9330 C.ar      1 <0>        -0.0329
     24 C19         7.0487    3.8453   -5.2351 C.ar      1 <0>        -0.2051
     25 C20         8.0304    2.9087   -4.9811 C.ar      1 <0>         0.1501
     26 N6          7.7284    1.7381   -4.4521 N.ar      1 <0>        -0.5182
     27 N7          5.6034    0.5592   -0.8734 N.pl3     1 <0>        -0.8326
     28 H1          2.8571    1.6392    1.8375 H         1 <0>         0.0527
     29 H2          1.1340    2.0073    1.5850 H         1 <0>         0.0687
     30 H3          1.7248    1.5839    3.2098 H         1 <0>         0.0887
     31 H4          2.4422   -0.7571    3.7074 H         1 <0>         0.0827
     32 H5          2.3626   -2.0014    2.4371 H         1 <0>         0.0775
     33 H6          3.5745   -0.7018    2.3351 H         1 <0>         0.0507
     34 H7         -0.5672    0.1830    1.7281 H         1 <0>         0.0659
     35 H8         -0.0561   -1.4847    2.0827 H         1 <0>         0.0772
     36 H9          0.0236   -0.2404    3.3529 H         1 <0>         0.0854
     37 H10         1.0350    0.1662   -0.1156 H         1 <0>         0.3472
     38 H11         3.6409    0.2909    0.6370 H         1 <0>         0.4319
     39 H12         2.0302   -1.2122   -4.1631 H         1 <0>         0.2467
     40 H13         8.2284   -0.3672   -3.4396 H         1 <0>         0.1167
     41 H14         7.0863   -1.4960   -2.6718 H         1 <0>         0.0822
     42 H15         5.8558   -3.1149   -4.0021 H         1 <0>         0.1085
     43 H16         5.8175   -4.4729   -6.0557 H         1 <0>         0.1225
     44 H17         7.1739   -3.8047   -7.9991 H         1 <0>         0.1246
     45 H18         8.5681   -1.7780   -7.8891 H         1 <0>         0.1247
     46 H19         8.6000   -0.4154   -5.8383 H         1 <0>         0.1276
     47 H20         4.4235    2.0405   -4.1376 H         1 <0>         0.1176
     48 H21         4.9406    4.2600   -5.1226 H         1 <0>         0.1381
     49 H22         7.3058    4.8022   -5.6648 H         1 <0>         0.1413
     50 H23         9.0595    3.1385   -5.2145 H         1 <0>         0.1664
     51 H24         5.3593    0.7666    0.0422 H         1 <0>         0.4066
     52 H25         6.5178    0.6844   -1.1719 H         1 <0>         0.4285
     53 H26         1.5536   -0.8911   -1.9136 H         1 <0>         0.4518
@<TRIPOS>BOND
     1    1    2 1
     2    1   28 1
     3    1   29 1
     4    1   30 1
     5    2    3 1
     6    2    4 1
     7    2    5 1
     8    3   31 1
     9    3   32 1
    10    3   33 1
    11    4   34 1
    12    4   35 1
    13    4   36 1
    14    5    6 1
    15    5   37 1
    16    6    7 1
    17    6   38 1
    18    7   12 ar
    19    7    8 ar
    20    8    9 ar
    21    8   27 1
    22    9   10 ar
    23    9   13 1
    24   10   11 ar
    25   11   12 ar
    26   11   39 1
    27   12   53 1
    28   13   14 1
    29   13   21 1
    30   14   15 1
    31   14   40 1
    32   14   41 1
    33   15   20 ar
    34   15   16 ar
    35   16   17 ar
    36   16   42 1
    37   17   18 ar
    38   17   43 1
    39   18   19 ar
    40   18   44 1
    41   19   20 ar
    42   19   45 1
    43   20   46 1
    44   21   26 ar
    45   21   22 ar
    46   22   23 ar
    47   22   47 1
    48   23   24 ar
    49   23   48 1
    50   24   25 ar
    51   24   49 1
    52   25   26 ar
    53   25   50 1
    54   27   51 1
    55   27   52 1
@<TRIPOS>MOLECULE
ZINC44254352
   38    39     0     0     0
SMALL
USER_CHARGES

@<TRIPOS>ATOM
      1 C1          0.5833    0.3623   -1.2093 C.ar      1 <0>        -0.0459
      2 C2          1.7681    1.0713   -1.2168 C.ar      1 <0>        -0.1165
      3 C3          2.3765    1.4177   -0.0229 C.ar      1 <0>         0.0080
      4 C4          1.7997    1.0547    1.1817 C.ar      1 <0>        -0.1170
      5 C5          0.6147    0.3460    1.1956 C.ar      1 <0>        -0.0450
      6 C6          0.0015   -0.0032   -0.0014 C.ar      1 <0>        -0.1757
      7 S1         -1.5107   -0.9075    0.0122 S.3       1 <0>         0.0533
      8 C7         -1.0043   -2.5873   -0.1509 C.ar      1 <0>        -0.1279
      9 C8          0.3486   -2.9223   -0.1410 C.ar      1 <0>        -0.0224
     10 C9          0.6967   -4.2562   -0.2719 C.ar      1 <0>        -0.1827
     11 C10        -0.3007   -5.2046   -0.4069 C.ar      1 <0>         0.1597
     12 N1         -1.5722   -4.8552   -0.4124 N.ar      1 <0>        -0.4582
     13 C11        -1.9478   -3.5983   -0.2854 C.ar      1 <0>         0.0997
     14 C12        -3.4149   -3.2537   -0.2917 C.3       1 <0>         0.1173
     15 H1         -3.5511   -2.2379    0.0795 H         1 <0>         0.1633
     16 C13        -3.9557   -3.3518   -1.7195 C.3       1 <0>        -0.1700
     17 C14        -5.3898   -2.8895   -1.7464 C.2       1 <0>         0.5172
     18 O1         -5.9264   -2.5181   -0.7241 O.2       1 <0>        -0.5552
     19 N2         -6.0759   -2.8887   -2.9064 N.am      1 <0>        -0.8302
     20 N3         -4.1421   -4.1925    0.5730 N.4       1 <0>        -0.6276
     21 C15         2.1459   -4.6695   -0.2676 C.3       1 <0>         0.5125
     22 F1          2.5506   -4.9374    1.0445 F         1 <0>        -0.1640
     23 F2          2.3052   -5.8192   -1.0487 F         1 <0>        -0.1642
     24 F3          2.9272   -3.6357   -0.7948 F         1 <0>        -0.1669
     25 Cl1         3.8663    2.3087   -0.0363 Cl        1 <0>        -0.0376
     26 H2          0.1069    0.0958   -2.1412 H         1 <0>         0.1451
     27 H3          2.2207    1.3556   -2.1552 H         1 <0>         0.1494
     28 H4          2.2771    1.3258    2.1118 H         1 <0>         0.1497
     29 H5          0.1652    0.0627    2.1359 H         1 <0>         0.1469
     30 H6          1.1066   -2.1605   -0.0344 H         1 <0>         0.1608
     31 H7         -0.0344   -6.2462   -0.5096 H         1 <0>         0.1891
     32 H8         -3.3584   -2.7215   -2.3784 H         1 <0>         0.1472
     33 H9         -3.9010   -4.3863   -2.0585 H         1 <0>         0.1332
     34 H10        -5.6467   -3.1857   -3.7240 H         1 <0>         0.4131
     35 H11        -6.9990   -2.5911   -2.9237 H         1 <0>         0.4185
     36 H12        -4.0160   -5.1328    0.2294 H         1 <0>         0.4386
     37 H13        -3.7855   -4.1279    1.5146 H         1 <0>         0.4389
     38 H14        -5.1244   -3.9618    0.5688 H         1 <0>         0.4456
@<TRIPOS>BOND
     1    1    6 ar
     2    1    2 ar
     3    1   26 1
     4    2    3 ar
     5    2   27 1
     6    3    4 ar
     7    3   25 1
     8    4    5 ar
     9    4   28 1
    10    5    6 ar
    11    5   29 1
    12    6    7 1
    13    7    8 1
    14    8   13 ar
    15    8    9 ar
    16    9   10 ar
    17    9   30 1
    18   10   11 ar
    19   10   21 1
    20   11   12 ar
    21   11   31 1
    22   12   13 ar
    23   13   14 1
    24   14   15 1
    25   14   16 1
    26   14   20 1
    27   16   17 1
    28   16   32 1
    29   16   33 1
    30   17   18 2
    31   17   19 am
    32   19   34 1
    33   19   35 1
    34   20   36 1
    35   20   37 1
    36   20   38 1
    37   21   22 1
    38   21   23 1
    39   21   24 1
@<TRIPOS>MOLECULE
ZINC51094943
   44    45     0     0     0
SMALL
USER_CHARGES

@<TRIPOS>ATOM
      1 C1          0.0177    1.5673   -0.1646 C.3       1 <0>        -0.1830
      2 C2          0.0325    0.0376   -0.1402 C.3       1 <0>         0.0275
      3 C3          0.7735   -0.4454    1.1083 C.3       1 <0>        -0.1840
      4 N1         -1.3476   -0.4651   -0.1156 N.4       1 <0>        -0.3920
      5 C4         -2.0528   -0.0801   -1.3573 C.3       1 <0>        -0.0069
      6 C5         -2.9983   -1.2408   -1.7183 C.3       1 <0>        -0.1461
      7 C6         -2.7600   -2.3099   -0.6273 C.3       1 <0>        -0.1246
      8 H1         -3.5060   -2.2272    0.1631 H         1 <0>         0.1157
      9 C7         -1.3514   -1.9503   -0.0916 C.3       1 <0>         0.0024
     10 C8         -2.7704   -3.7143   -1.2342 C.3       1 <0>         0.1298
     11 N2         -4.1144   -4.0225   -1.7291 N.am      1 <0>        -0.7285
     12 C9         -4.3624   -5.2139   -2.3083 C.2       1 <0>         0.5890
     13 O1         -3.4706   -6.0330   -2.4202 O.2       1 <0>        -0.5424
     14 C10        -5.7149   -5.5241   -2.8064 C.ar      1 <0>        -0.2777
     15 C11        -6.7786   -4.6441   -2.5753 C.ar      1 <0>         0.0379
     16 C12        -8.0289   -4.9811   -3.0641 C.ar      1 <0>        -0.2257
     17 C13        -8.1914   -6.1665   -3.7608 C.ar      1 <0>         0.2294
     18 N3         -7.1762   -6.9821   -3.9674 N.ar      1 <0>        -0.5168
     19 C14        -5.9584   -6.7056   -3.5268 C.ar      1 <0>         0.4704
     20 N4         -4.9217   -7.5876   -3.7718 N.pl3     1 <0>        -0.5338
     21 N5         -5.1274   -8.6797   -4.5662 N.3       1 <0>        -0.6027
     22 Br1        -9.5038   -3.8317   -2.7822 Br        1 <0>        -0.0271
     23 H2          1.0418    1.9403   -0.1829 H         1 <0>         0.1056
     24 H3         -0.5102    1.9114   -1.0540 H         1 <0>         0.0803
     25 H4         -0.4889    1.9400    0.7256 H         1 <0>         0.0809
     26 H5          0.5392   -0.3352   -1.0304 H         1 <0>         0.1359
     27 H6          0.2668   -0.0726    1.9985 H         1 <0>         0.0810
     28 H7          0.7840   -1.5352    1.1257 H         1 <0>         0.0810
     29 H8          1.7975   -0.0724    1.0900 H         1 <0>         0.1057
     30 H9         -2.6290    0.8300   -1.1902 H         1 <0>         0.1337
     31 H10        -1.3324    0.0755   -2.1605 H         1 <0>         0.1319
     32 H11        -4.0349   -0.9044   -1.6984 H         1 <0>         0.1082
     33 H12        -2.7483   -1.6408   -2.7010 H         1 <0>         0.1081
     34 H13        -0.5772   -2.3476   -0.7480 H         1 <0>         0.1384
     35 H14        -1.2211   -2.3189    0.9258 H         1 <0>         0.1412
     36 H15        -2.0601   -3.7587   -2.0598 H         1 <0>         0.0824
     37 H16        -2.4881   -4.4413   -0.4726 H         1 <0>         0.0863
     38 H17        -4.8257   -3.3692   -1.6399 H         1 <0>         0.4042
     39 H18        -6.6276   -3.7249   -2.0287 H         1 <0>         0.1413
     40 H19        -9.1675   -6.4281   -4.1416 H         1 <0>         0.1748
     41 H20        -4.0485   -7.4307   -3.3796 H         1 <0>         0.4292
     42 H21        -5.4763   -8.4068   -5.4728 H         1 <0>         0.3497
     43 H22        -4.2847   -9.2277   -4.6529 H         1 <0>         0.3635
     44 H23        -1.8360   -0.1029    0.6896 H         1 <0>         0.4260
@<TRIPOS>BOND
     1    1    2 1
     2    1   23 1
     3    1   24 1
     4    1   25 1
     5    2    3 1
     6    2    4 1
     7    2   26 1
     8    3   27 1
     9    3   28 1
    10    3   29 1
    11    4    9 1
    12    4    5 1
    13    4   44 1
    14    5    6 1
    15    5   30 1
    16    5   31 1
    17    6    7 1
    18    6   32 1
    19    6   33 1
    20    7    8 1
    21    7    9 1
    22    7   10 1
    23    9   34 1
    24    9   35 1
    25   10   11 1
    26   10   36 1
    27   10   37 1
    28   11   12 am
    29   11   38 1
    30   12   13 2
    31   12   14 1
    32   14   19 ar
    33   14   15 ar
    34   15   16 ar
    35   15   39 1
    36   16   17 ar
    37   16   22 1
    38   17   18 ar
    39   17   40 1
    40   18   19 ar
    41   19   20 1
    42   20   21 1
    43   20   41 1
    44   21   42 1
    45   21   43 1
@<TRIPOS>MOLECULE
ZINC02138942
   61    65     0     0     0
SMALL
USER_CHARGES
2-[(2-methoxyphenyl)methyl-dimethyl-trioxo-BLAHyl]acetamide
@<TRIPOS>ATOM
      1 C1          5.7285    0.8288    3.5030 C.3       1 <0>        -0.1218
      2 C2          4.8524    1.9145    2.9333 C.ar      1 <0>        -0.0797
      3 C3          5.2845    3.2283    2.9393 C.ar      1 <0>        -0.0525
      4 C4          4.4865    4.2263    2.4198 C.ar      1 <0>        -0.0756
      5 C5          3.2383    3.9179    1.8839 C.ar      1 <0>         0.1613
      6 C6          2.8141    2.5923    1.8828 C.ar      1 <0>        -0.1872
      7 C7          3.6138    1.5994    2.4034 C.ar      1 <0>        -0.0538
      8 C8          1.4530    2.5974    1.2472 C.3       1 <0>         0.0954
      9 C9          1.4107    1.7099   -0.0022 C.3       1 <0>        -0.1220
     10 H1          2.2005    0.9589   -0.0189 H         1 <0>         0.1775
     11 C10        -0.0127    1.0858    0.0080 C.3       1 <0>        -0.1426
     12 H2          0.0021   -0.0041    0.0020 H         1 <0>         0.1741
     13 C11        -0.6889    1.6652    1.2691 C.3       1 <0>         0.0547
     14 H3         -1.2782    2.5456    1.0129 H         1 <0>         0.1654
     15 C12        -1.5720    0.6070    1.9334 C.3       1 <0>        -0.1610
     16 C13        -2.3162    1.2266    3.0881 C.2       1 <0>         0.5129
     17 O1         -2.1560    2.3991    3.3535 O.2       1 <0>        -0.5513
     18 N1         -3.1597    0.4778    3.8258 N.am      1 <0>        -0.8337
     19 C14        -0.6566    1.6682   -1.2301 C.2       1 <0>         0.5306
     20 O2         -1.7861    1.4391   -1.6058 O.2       1 <0>        -0.4126
     21 N2          0.2142    2.4758   -1.8464 N.am      1 <0>        -0.5475
     22 C15         1.4044    2.5733   -1.2431 C.2       1 <0>         0.5301
     23 O3          2.3331    3.2491   -1.6310 O.2       1 <0>        -0.4399
     24 C16        -0.1094    3.1946   -3.0812 C.3       1 <0>         0.1578
     25 C17         0.2572    2.3428   -4.2691 C.ar      1 <0>        -0.1660
     26 C18         1.4374    2.5752   -4.9488 C.ar      1 <0>        -0.0556
     27 C19         1.7743    1.7941   -6.0386 C.ar      1 <0>        -0.1591
     28 C20         0.9315    0.7782   -6.4509 C.ar      1 <0>        -0.0614
     29 C21        -0.2495    0.5418   -5.7749 C.ar      1 <0>        -0.2125
     30 C22        -0.5873    1.3210   -4.6776 C.ar      1 <0>         0.1456
     31 O4         -1.7460    1.0867   -4.0073 O.3       1 <0>        -0.2972
     32 C23        -2.5666    0.0182   -4.4838 C.3       1 <0>         0.0282
     33 C24         1.1851    4.0383    0.9073 C.2       1 <0>         0.5218
     34 O5          0.1902    4.4841    0.3759 O.2       1 <0>        -0.4412
     35 N3          2.2646    4.7372    1.3082 N.am      1 <0>        -0.6306
     36 C25         4.9664    5.6548    2.4324 C.3       1 <0>        -0.1274
     37 H4          5.5095    0.7043    4.5635 H         1 <0>         0.0815
     38 H5          5.5340   -0.1072    2.9795 H         1 <0>         0.0748
     39 H6          6.7758    1.1040    3.3782 H         1 <0>         0.0788
     40 H7          6.2513    3.4742    3.3531 H         1 <0>         0.1487
     41 H8          3.2740    0.5742    2.3980 H         1 <0>         0.1402
     42 H9         -2.2862    0.2210    1.2060 H         1 <0>         0.1564
     43 H10        -0.9486   -0.2091    2.2989 H         1 <0>         0.1305
     44 H11        -3.2878   -0.4600    3.6135 H         1 <0>         0.4118
     45 H12        -3.6387    0.8766    4.5690 H         1 <0>         0.4169
     46 H13        -1.1771    3.4122   -3.1059 H         1 <0>         0.1128
     47 H14         0.4526    4.1279   -3.1162 H         1 <0>         0.1056
     48 H15         2.0972    3.3681   -4.6287 H         1 <0>         0.1321
     49 H16         2.6973    1.9774   -6.5685 H         1 <0>         0.1298
     50 H17         1.1969    0.1694   -7.3026 H         1 <0>         0.1303
     51 H18        -0.9075   -0.2515   -6.0975 H         1 <0>         0.1326
     52 H19        -2.8596    0.2171   -5.5147 H         1 <0>         0.0570
     53 H20        -2.0080   -0.9167   -4.4388 H         1 <0>         0.0532
     54 H21        -3.4580   -0.0607   -3.8615 H         1 <0>         0.1028
     55 H22         2.3552    5.6978    1.2087 H         1 <0>         0.4362
     56 H23         4.6520    6.1355    3.3588 H         1 <0>         0.0842
     57 H24         6.0541    5.6732    2.3644 H         1 <0>         0.0856
     58 H25         4.5402    6.1888    1.5832 H         1 <0>         0.0687
     59 N4          0.4243    2.0638    2.1250 N.4       1 <0>        -0.4839
     60 H26         0.1190    2.7830    2.7911 H         1 <0>         0.4517
     61 H27         0.7840    1.2514    2.6395 H         1 <0>         0.4383
@<TRIPOS>BOND
     1    1    2 1
     2    1   37 1
     3    1   38 1
     4    1   39 1
     5    2    7 ar
     6    2    3 ar
     7    3    4 ar
     8    3   40 1
     9    4    5 ar
    10    4   36 1
    11    5   35 1
    12    5    6 ar
    13    6    7 ar
    14    6    8 1
    15    7   41 1
    16    8    9 1
    17    8   33 1
    18    8   59 1
    19    9   10 1
    20    9   22 1
    21    9   11 1
    22   11   12 1
    23   11   13 1
    24   11   19 1
    25   13   14 1
    26   13   15 1
    27   13   59 1
    28   15   16 1
    29   15   42 1
    30   15   43 1
    31   16   17 2
    32   16   18 am
    33   18   44 1
    34   18   45 1
    35   19   20 2
    36   19   21 am
    37   21   22 am
    38   21   24 1
    39   22   23 2
    40   24   25 1
    41   24   46 1
    42   24   47 1
    43   25   30 ar
    44   25   26 ar
    45   26   27 ar
    46   26   48 1
    47   27   28 ar
    48   27   49 1
    49   28   29 ar
    50   28   50 1
    51   29   30 ar
    52   29   51 1
    53   30   31 1
    54   31   32 1
    55   32   52 1
    56   32   53 1
    57   32   54 1
    58   33   34 2
    59   33   35 am
    60   35   55 1
    61   36   56 1
    62   36   57 1
    63   36   58 1
    64   59   60 1
    65   59   61 1
@<TRIPOS>MOLECULE
ZINC08995726
   48    51     0     0     0
SMALL
USER_CHARGES
2-[(3aR,4R,6S,6aR)-5'-bromo-2-(2-methoxyethyl)-1,2',3-trioxo-spiro[3a,4,5,6a-tetrahydropyrrolo[3,4-c]pyrrole-6,3'-indoline]-4-yl]acetamide
@<TRIPOS>ATOM
      1 C1          0.1908   -1.2311    5.4317 C.3       1 <0>         0.0304
      2 O1         -1.0986   -0.9838    4.8675 O.3       1 <0>        -0.3834
      3 C2         -1.8653   -2.1660    4.6295 C.3       1 <0>         0.0373
      4 C3         -3.2191   -1.7834    4.0281 C.3       1 <0>         0.1061
      5 N1         -3.0145   -1.1819    2.7081 N.am      1 <0>        -0.5831
      6 C4         -2.9854   -1.8993    1.5450 C.2       1 <0>         0.5538
      7 O2         -3.3841   -3.0307    1.3700 O.2       1 <0>        -0.4292
      8 C5         -2.3547   -0.9881    0.5281 C.3       1 <0>        -0.1461
      9 H1         -1.2653   -1.0018    0.5614 H         1 <0>         0.1746
     10 C6         -2.9214   -0.9215   -0.8887 C.3       1 <0>         0.0738
     11 H2         -2.2750   -1.4617   -1.5804 H         1 <0>         0.1841
     12 C7         -2.6505    1.2991    0.0213 C.3       1 <0>         0.1388
     13 C8         -3.0066    0.3457    1.0804 C.3       1 <0>        -0.1728
     14 H3         -4.0798    0.2098    0.9470 H         1 <0>         0.1376
     15 C9         -2.8318    0.1636    2.5051 C.2       1 <0>         0.5803
     16 O3         -2.5800    1.0106    3.3350 O.2       1 <0>        -0.3980
     17 C10        -1.2151    1.7468    0.0173 C.ar      1 <0>        -0.2006
     18 C11        -0.0126    1.0758    0.0080 C.ar      1 <0>        -0.0154
     19 C12         1.1773    1.7829    0.0004 C.ar      1 <0>        -0.1076
     20 C13         1.1559    3.1666    0.0079 C.ar      1 <0>        -0.0137
     21 C14        -0.0462    3.8427    0.0227 C.ar      1 <0>        -0.1133
     22 C15        -1.2477    3.1380    0.0309 C.ar      1 <0>         0.1894
     23 N2         -2.5691    3.5902    0.0458 N.am      1 <0>        -0.6339
     24 C16        -3.4532    2.5755    0.0319 C.2       1 <0>         0.5325
     25 O4         -4.6624    2.6695    0.0379 O.2       1 <0>        -0.4371
     26 Br1         2.8279    0.8605   -0.0207 Br        1 <0>        -0.0034
     27 C17        -4.3365   -1.5021   -0.9223 C.3       1 <0>        -0.1901
     28 C18        -4.8301   -1.5404   -2.3457 C.2       1 <0>         0.5173
     29 O5         -4.1199   -1.1424   -3.2447 O.2       1 <0>        -0.5490
     30 N3         -6.0607   -2.0168   -2.6196 N.am      1 <0>        -0.8323
     31 H4          0.7094   -0.2841    5.5819 H         1 <0>         0.0905
     32 H5          0.0770   -1.7388    6.3895 H         1 <0>         0.0477
     33 H6          0.7696   -1.8588    4.7542 H         1 <0>         0.0420
     34 H7         -2.0217   -2.6932    5.5707 H         1 <0>         0.0781
     35 H8         -1.3292   -2.8132    3.9354 H         1 <0>         0.0560
     36 H9         -3.7171   -1.0665    4.6809 H         1 <0>         0.1106
     37 H10        -3.8377   -2.6754    3.9290 H         1 <0>         0.1208
     38 H11         0.0021   -0.0041    0.0020 H         1 <0>         0.1445
     39 H12         2.0839    3.7190    0.0017 H         1 <0>         0.1613
     40 H13        -0.0559    4.9226    0.0283 H         1 <0>         0.1573
     41 H14        -2.8205    4.5270    0.0530 H         1 <0>         0.4418
     42 H15        -4.3243   -2.5130   -0.5147 H         1 <0>         0.1640
     43 H16        -4.9999   -0.8773   -0.3244 H         1 <0>         0.1207
     44 H17        -6.6287   -2.3351   -1.9006 H         1 <0>         0.4121
     45 H18        -6.3784   -2.0414   -3.5358 H         1 <0>         0.4181
     46 N4         -2.9470    0.5290   -1.2187 N.4       1 <0>        -0.5086
     47 H19        -3.8751    0.7875   -1.5737 H         1 <0>         0.4420
     48 H20        -2.2380    0.7348   -1.9323 H         1 <0>         0.4541
@<TRIPOS>BOND
     1    1    2 1
     2    1   31 1
     3    1   32 1
     4    1   33 1
     5    2    3 1
     6    3    4 1
     7    3   34 1
     8    3   35 1
     9    4    5 1
    10    4   36 1
    11    4   37 1
    12    5   15 am
    13    5    6 am
    14    6    7 2
    15    6    8 1
    16    8    9 1
    17    8   13 1
    18    8   10 1
    19   10   11 1
    20   10   27 1
    21   10   46 1
    22   12   24 1
    23   12   13 1
    24   12   17 1
    25   12   46 1
    26   13   14 1
    27   13   15 1
    28   15   16 2
    29   17   22 ar
    30   17   18 ar
    31   18   19 ar
    32   18   38 1
    33   19   20 ar
    34   19   26 1
    35   20   21 ar
    36   20   39 1
    37   21   22 ar
    38   21   40 1
    39   22   23 1
    40   23   24 am
    41   23   41 1
    42   24   25 2
    43   27   28 1
    44   27   42 1
    45   27   43 1
    46   28   29 2
    47   28   30 am
    48   30   44 1
    49   30   45 1
    50   46   47 1
    51   46   48 1
@<TRIPOS>MOLECULE
ZINC39481545
   66    69     0     0     0
SMALL
USER_CHARGES

@<TRIPOS>ATOM
      1 C1          2.0007    0.7556    0.2461 C.3       1 <0>        -0.1512
      2 C2          1.6696   -0.7343    0.1381 C.3       1 <0>        -0.0916
      3 C3          2.3951   -1.4996    1.2466 C.3       1 <0>        -0.1499
      4 C4          0.1598   -0.9332    0.2850 C.3       1 <0>        -0.0802
      5 C5         -0.1804   -2.3834    0.0567 C.ar      1 <0>        -0.0787
      6 C6         -0.4730   -2.8303   -1.2185 C.ar      1 <0>        -0.0693
      7 C7         -0.7859   -4.1596   -1.4348 C.ar      1 <0>        -0.1626
      8 C8         -0.8065   -5.0489   -0.3712 C.ar      1 <0>         0.1588
      9 C9         -0.5110   -4.5982    0.9152 C.ar      1 <0>         0.1309
     10 C10        -0.1935   -3.2644    1.1223 C.ar      1 <0>        -0.0825
     11 N1         -0.5305   -5.4909    1.9937 N.pl3     1 <0>        -0.6714
     12 C11         0.6811   -6.2254    2.3897 C.3       1 <0>         0.1141
     13 C12         0.3306   -7.7123    2.5085 C.3       1 <0>        -0.0300
     14 N2         -0.8039   -7.8750    3.4263 N.4       1 <0>        -0.5026
     15 C13        -1.9981   -7.2314    2.8644 C.3       1 <0>         0.0697
     16 H1         -2.1957   -7.6357    1.8717 H         1 <0>         0.1390
     17 C14        -1.7616   -5.7164    2.7668 C.3       1 <0>         0.1303
     18 C15        -3.1806   -7.4973    3.7599 C.ar      1 <0>        -0.1689
     19 C16        -2.9857   -7.7653    5.1012 C.ar      1 <0>        -0.1114
     20 C17        -4.0701   -8.0098    5.9231 C.ar      1 <0>        -0.1084
     21 C18        -5.3522   -7.9864    5.4055 C.ar      1 <0>        -0.0746
     22 C19        -5.5524   -7.7186    4.0653 C.ar      1 <0>        -0.1284
     23 C20        -4.4660   -7.4677    3.2394 C.ar      1 <0>         0.1426
     24 O1         -4.6607   -7.1983    1.9216 O.3       1 <0>        -0.4942
     25 N3         -1.1236   -6.3954   -0.5878 N.pl3     1 <0>        -1.0533
     26 S1         -0.6440   -7.1446   -1.9846 S.o2      1 <0>         2.6886
     27 O2          0.7186   -6.7953   -2.1856 O.2       1 <0>        -0.9364
     28 O3         -1.0787   -8.4943   -1.8914 O.2       1 <0>        -0.9355
     29 C21        -1.5516   -6.4134   -3.3061 C.ar      1 <0>        -0.7109
     30 C22        -0.8881   -5.7191   -4.2994 C.ar      1 <0>        -0.0119
     31 C23        -1.5996   -5.1447   -5.3362 C.ar      1 <0>        -0.1403
     32 C24        -2.9766   -5.2639   -5.3823 C.ar      1 <0>        -0.0387
     33 C25        -3.6445   -5.9574   -4.3920 C.ar      1 <0>        -0.1593
     34 C26        -2.9322   -6.5392   -3.3531 C.ar      1 <0>         0.2058
     35 O4         -3.5865   -7.2268   -2.3805 O.3       1 <0>        -0.4890
     36 H2          3.0764    0.8972    0.1414 H         1 <0>         0.0585
     37 H3          1.4839    1.3008   -0.5437 H         1 <0>         0.0571
     38 H4          1.6777    1.1300    1.2174 H         1 <0>         0.0559
     39 H5          1.9926   -1.1088   -0.8333 H         1 <0>         0.0729
     40 H6          2.0721   -1.1251    2.2180 H         1 <0>         0.0534
     41 H7          2.1593   -2.5610    1.1697 H         1 <0>         0.0542
     42 H8          3.4708   -1.3579    1.1420 H         1 <0>         0.0563
     43 H9         -0.1492   -0.6412    1.2887 H         1 <0>         0.0754
     44 H10        -0.3609   -0.3180   -0.4489 H         1 <0>         0.0781
     45 H11        -0.4573   -2.1389   -2.0481 H         1 <0>         0.1352
     46 H12        -1.0146   -4.5052   -2.4322 H         1 <0>         0.1352
     47 H13         0.0398   -2.9129    2.1165 H         1 <0>         0.1319
     48 H14         1.4546   -6.0906    1.6337 H         1 <0>         0.1223
     49 H15         1.0361   -5.8548    3.3514 H         1 <0>         0.0856
     50 H16         0.0625   -8.1021    1.5265 H         1 <0>         0.1283
     51 H17         1.1913   -8.2589    2.8940 H         1 <0>         0.1488
     52 H18        -0.9860   -8.8580    3.5631 H         1 <0>         0.4316
     53 H19        -1.6490   -5.2953    3.7659 H         1 <0>         0.0848
     54 H20        -2.6038   -5.2450    2.2602 H         1 <0>         0.1218
     55 H21        -1.9854   -7.7841    5.5079 H         1 <0>         0.1218
     56 H22        -3.9156   -8.2198    6.9712 H         1 <0>         0.1399
     57 H23        -6.1977   -8.1781    6.0495 H         1 <0>         0.1418
     58 H24        -6.5539   -7.7005    3.6615 H         1 <0>         0.1444
     59 H25        -4.6623   -7.9826    1.3560 H         1 <0>         0.4004
     60 H26        -1.6242   -6.8894    0.0803 H         1 <0>         0.4134
     61 H27         0.1872   -5.6247   -4.2656 H         1 <0>         0.1514
     62 H28        -1.0793   -4.6018   -6.1114 H         1 <0>         0.1433
     63 H29        -3.5302   -4.8140   -6.1932 H         1 <0>         0.1426
     64 H30        -4.7199   -6.0501   -4.4284 H         1 <0>         0.1435
     65 H31        -3.8767   -6.6787   -1.6386 H         1 <0>         0.3952
     66 H32        -0.5805   -7.4502    4.3139 H         1 <0>         0.4265
@<TRIPOS>BOND
     1    1    2 1
     2    1   36 1
     3    1   37 1
     4    1   38 1
     5    2    3 1
     6    2    4 1
     7    2   39 1
     8    3   40 1
     9    3   41 1
    10    3   42 1
    11    4    5 1
    12    4   43 1
    13    4   44 1
    14    5   10 ar
    15    5    6 ar
    16    6    7 ar
    17    6   45 1
    18    7    8 ar
    19    7   46 1
    20    8    9 ar
    21    8   25 1
    22    9   10 ar
    23    9   11 1
    24   10   47 1
    25   11   17 1
    26   11   12 1
    27   12   13 1
    28   12   48 1
    29   12   49 1
    30   13   14 1
    31   13   50 1
    32   13   51 1
    33   14   15 1
    34   14   52 1
    35   14   66 1
    36   15   16 1
    37   15   17 1
    38   15   18 1
    39   17   53 1
    40   17   54 1
    41   18   23 ar
    42   18   19 ar
    43   19   20 ar
    44   19   55 1
    45   20   21 ar
    46   20   56 1
    47   21   22 ar
    48   21   57 1
    49   22   23 ar
    50   22   58 1
    51   23   24 1
    52   24   59 1
    53   25   26 1
    54   25   60 1
    55   26   27 2
    56   26   28 2
    57   26   29 1
    58   29   34 ar
    59   29   30 ar
    60   30   31 ar
    61   30   61 1
    62   31   32 ar
    63   31   62 1
    64   32   33 ar
    65   32   63 1
    66   33   34 ar
    67   33   64 1
    68   34   35 1
    69   35   65 1
@<TRIPOS>MOLECULE
ZINC40783722
   56    59     0     0     0
SMALL
USER_CHARGES

@<TRIPOS>ATOM
      1 C1         -0.0167    1.3781    0.0096 C.ar      1 <0>        -0.1183
      2 C2          1.1709    2.0855    0.0021 C.ar      1 <0>        -0.1174
      3 C3          2.3773    1.4107   -0.0130 C.ar      1 <0>        -0.0989
      4 C4          2.3960    0.0285   -0.0201 C.ar      1 <0>        -0.0864
      5 C5          1.2084   -0.6789   -0.0117 C.ar      1 <0>        -0.1031
      6 C6          0.0021   -0.0041    0.0020 C.ar      1 <0>        -0.1225
      7 C7          3.7112   -0.7071   -0.0376 C.3       1 <0>         0.2450
      8 C8          4.0438   -1.1746    1.3559 C.ar      1 <0>        -0.0910
      9 C9          3.4555   -2.3197    1.8597 C.ar      1 <0>        -0.1143
     10 C10         3.7605   -2.7485    3.1379 C.ar      1 <0>        -0.1150
     11 C11         4.6543   -2.0326    3.9122 C.ar      1 <0>        -0.1151
     12 C12         5.2433   -0.8881    3.4082 C.ar      1 <0>        -0.1125
     13 C13         4.9415   -0.4616    2.1284 C.ar      1 <0>        -0.1032
     14 N1          3.6115   -1.8645   -0.9302 N.pl3     1 <0>        -0.7068
     15 C14         3.8312   -1.7112   -2.2939 C.ar      1 <0>         0.4143
     16 C15         3.7333   -2.8057   -3.1551 C.ar      1 <0>        -0.0052
     17 C16         3.9632   -2.5964   -4.5157 C.ar      1 <0>         0.3959
     18 N2          4.2649   -1.3705   -4.9375 N.ar      1 <0>        -0.5761
     19 C17         4.3473   -0.3643   -4.0910 C.ar      1 <0>         0.3286
     20 N3          4.1328   -0.5179   -2.7998 N.ar      1 <0>        -0.5620
     21 N4          3.8790   -3.6517   -5.4162 N.pl3     1 <0>        -0.7264
     22 C18         4.1225   -3.4192   -6.8420 C.3       1 <0>         0.1427
     23 C19         3.9679   -4.7352   -7.6070 C.3       1 <0>        -0.1557
     24 C20         4.2223   -4.4924   -9.0960 C.3       1 <0>         0.0961
     25 N5          4.0742   -5.7525   -9.8285 N.pl3     1 <0>        -0.4077
     26 C21         5.0618   -6.6660  -10.0811 C.2       1 <0>         0.0257
     27 C22         4.4953   -7.6697  -10.7777 C.2       1 <0>         0.0037
     28 N6          3.1972   -7.3770  -10.9458 N.pl3     1 <0>        -0.4764
     29 C23         2.9367   -6.2325  -10.3755 C.cat     1 <0>         0.2883
     30 N7          3.4127   -4.0826   -2.6656 N.pl3     1 <0>        -0.8778
     31 H1         -0.9591    1.9053    0.0259 H         1 <0>         0.1212
     32 H2          1.1563    3.1654    0.0076 H         1 <0>         0.1235
     33 H3          3.3051    1.9634   -0.0196 H         1 <0>         0.1230
     34 H4          1.2231   -1.7588   -0.0179 H         1 <0>         0.1106
     35 H5         -0.9258   -0.5567    0.0082 H         1 <0>         0.1189
     36 H6          4.4960   -0.0399   -0.3940 H         1 <0>         0.1081
     37 H7          2.7572   -2.8790    1.2547 H         1 <0>         0.1144
     38 H8          3.3004   -3.6427    3.5317 H         1 <0>         0.1241
     39 H9          4.8921   -2.3673    4.9112 H         1 <0>         0.1250
     40 H10         5.9413   -0.3286    4.0133 H         1 <0>         0.1269
     41 H11         5.4045    0.4305    1.7332 H         1 <0>         0.1258
     42 H12         3.3922   -2.7378   -0.5694 H         1 <0>         0.4023
     43 H13         4.5945    0.6174   -4.4673 H         1 <0>         0.1947
     44 H14         3.6590   -4.5421   -5.1006 H         1 <0>         0.4024
     45 H15         3.4031   -2.6927   -7.2197 H         1 <0>         0.0730
     46 H16         5.1333   -3.0353   -6.9801 H         1 <0>         0.0733
     47 H17         4.6873   -5.4617   -7.2292 H         1 <0>         0.0860
     48 H18         2.9572   -5.1192   -7.4689 H         1 <0>         0.0838
     49 H19         3.5029   -3.7659   -9.4738 H         1 <0>         0.1270
     50 H20         5.2330   -4.1085   -9.2341 H         1 <0>         0.1298
     51 H21         6.0966   -6.5952   -9.7800 H         1 <0>         0.2232
     52 H22         4.9981   -8.5551  -11.1378 H         1 <0>         0.2240
     53 H23         1.9718   -5.7482  -10.3479 H         1 <0>         0.2599
     54 H24         3.2558   -4.2132   -1.7173 H         1 <0>         0.3946
     55 H25         3.3481   -4.8339   -3.2758 H         1 <0>         0.3909
     56 H26         2.5529   -7.9306  -11.4142 H         1 <0>         0.4656
@<TRIPOS>BOND
     1    1    6 ar
     2    1    2 ar
     3    1   31 1
     4    2    3 ar
     5    2   32 1
     6    3    4 ar
     7    3   33 1
     8    4    5 ar
     9    4    7 1
    10    5    6 ar
    11    5   34 1
    12    6   35 1
    13    7    8 1
    14    7   14 1
    15    7   36 1
    16    8   13 ar
    17    8    9 ar
    18    9   10 ar
    19    9   37 1
    20   10   11 ar
    21   10   38 1
    22   11   12 ar
    23   11   39 1
    24   12   13 ar
    25   12   40 1
    26   13   41 1
    27   14   15 1
    28   14   42 1
    29   15   20 ar
    30   15   16 ar
    31   16   17 ar
    32   16   30 1
    33   17   18 ar
    34   17   21 1
    35   18   19 ar
    36   19   20 ar
    37   19   43 1
    38   21   22 1
    39   21   44 1
    40   22   23 1
    41   22   45 1
    42   22   46 1
    43   23   24 1
    44   23   47 1
    45   23   48 1
    46   24   25 1
    47   24   49 1
    48   24   50 1
    49   25   29 1
    50   25   26 1
    51   26   27 2
    52   26   51 1
    53   27   28 1
    54   27   52 1
    55   28   29 2
    56   28   56 1
    57   29   53 1
    58   30   54 1
    59   30   55 1
@<TRIPOS>MOLECULE
ZINC49794915
   54    55     0     0     0
SMALL
USER_CHARGES

@<TRIPOS>ATOM
      1 C1          0.3163   -2.4909   -0.1591 C.3       1 <0>        -0.1889
      2 C2         -0.0879   -1.7324    1.1067 C.3       1 <0>        -0.0321
      3 N1          0.7604   -0.5425    1.2564 N.4       1 <0>        -0.3835
      4 C3          0.2781    0.2637    2.3858 C.3       1 <0>        -0.0369
      5 C4          0.2345    1.7378    1.9782 C.3       1 <0>        -0.2004
      6 C5          2.1468   -0.9580    1.5081 C.3       1 <0>         0.0610
      7 H1          2.5472   -1.4451    0.6191 H         1 <0>         0.1565
      8 C6          2.9948    0.2709    1.8420 C.3       1 <0>         0.1165
      9 N2          2.9514    1.2134    0.7213 N.am      1 <0>        -0.7601
     10 C7          3.7083    2.3282    0.7486 C.2       1 <0>         0.7210
     11 O1          4.4939    2.5075    1.6591 O.2       1 <0>        -0.5372
     12 N3          3.5944    3.2443   -0.2334 N.am      1 <0>        -0.5192
     13 N4          2.6164    3.0906   -1.2247 N.am      1 <0>        -0.5083
     14 C8          2.5699    3.9474   -2.2640 C.2       1 <0>         0.5107
     15 O2          3.3751    4.8520   -2.3411 O.2       1 <0>        -0.4905
     16 C9          1.5267    3.7835   -3.3216 C.2       1 <0>         0.5286
     17 O3          0.7215    2.8789   -3.2445 O.2       1 <0>        -0.5224
     18 N5          1.4802    4.6403   -4.3609 N.am      1 <0>        -0.6592
     19 C10         0.4576    4.4796   -5.3975 C.3       1 <0>         0.0633
     20 C11         0.8991    4.6299   -6.8547 C.3       1 <0>        -0.1839
     21 C12         0.0572    5.7232   -6.1937 C.3       1 <0>        -0.1796
     22 C13         2.1800   -1.9212    2.6667 C.ar      1 <0>        -0.1243
     23 C14         1.1390   -1.9451    3.5759 C.ar      1 <0>        -0.1434
     24 C15         1.1694   -2.8285    4.6385 C.ar      1 <0>        -0.0947
     25 C16         2.2408   -3.6886    4.7928 C.ar      1 <0>        -0.0765
     26 C17         3.2821   -3.6656    3.8846 C.ar      1 <0>        -0.0901
     27 C18         3.2496   -2.7854    2.8173 C.ar      1 <0>        -0.0114
     28 Cl1         4.5541   -2.7604    1.6723 Cl        1 <0>        -0.0391
     29 H2          1.3787   -2.7306   -0.1154 H         1 <0>         0.0776
     30 H3         -0.2614   -3.4124   -0.2306 H         1 <0>         0.1101
     31 H4          0.1196   -1.8700   -1.0331 H         1 <0>         0.0835
     32 H5         -1.1315   -1.4273    1.0298 H         1 <0>         0.1383
     33 H6          0.0383   -2.3801    1.9742 H         1 <0>         0.1443
     34 H7         -0.7225   -0.0655    2.6661 H         1 <0>         0.1414
     35 H8          0.9519    0.1410    3.2337 H         1 <0>         0.1446
     36 H9         -0.0565    2.3436    2.8364 H         1 <0>         0.1120
     37 H10         1.2203    2.0483    1.6318 H         1 <0>         0.0838
     38 H11        -0.4913    1.8717    1.1761 H         1 <0>         0.0854
     39 H12         2.6005    0.7522    2.7370 H         1 <0>         0.1041
     40 H13         4.0256   -0.0361    2.0188 H         1 <0>         0.1240
     41 H14         2.3778    1.0351   -0.0403 H         1 <0>         0.3872
     42 H15         4.1894    4.0100   -0.2537 H         1 <0>         0.4541
     43 H16         1.9728    2.3675   -1.1631 H         1 <0>         0.4248
     44 H17         2.1238    5.3634   -4.4225 H         1 <0>         0.4188
     45 H18        -0.3214    3.7488   -5.1802 H         1 <0>         0.1455
     46 H19         1.9504    4.8484   -7.0421 H         1 <0>         0.1029
     47 H20         0.4107    3.9979   -7.5964 H         1 <0>         0.1106
     48 H21        -0.9851    5.8104   -6.5005 H         1 <0>         0.1121
     49 H22         0.5546    6.6610   -5.9462 H         1 <0>         0.1038
     50 H23         0.3020   -1.2733    3.4560 H         1 <0>         0.1489
     51 H24         0.3560   -2.8467    5.3488 H         1 <0>         0.1458
     52 H25         2.2641   -4.3784    5.6235 H         1 <0>         0.1486
     53 H26         4.1192   -4.3373    4.0054 H         1 <0>         0.1509
     54 H27         0.7221    0.0065    0.4107 H         1 <0>         0.4207
@<TRIPOS>BOND
     1    1    2 1
     2    1   29 1
     3    1   30 1
     4    1   31 1
     5    2    3 1
     6    2   32 1
     7    2   33 1
     8    3    4 1
     9    3    6 1
    10    3   54 1
    11    4    5 1
    12    4   34 1
    13    4   35 1
    14    5   36 1
    15    5   37 1
    16    5   38 1
    17    6    7 1
    18    6    8 1
    19    6   22 1
    20    8    9 1
    21    8   39 1
    22    8   40 1
    23    9   10 am
    24    9   41 1
    25   10   11 2
    26   10   12 am
    27   12   13 1
    28   12   42 1
    29   13   14 am
    30   13   43 1
    31   14   15 2
    32   14   16 1
    33   16   17 2
    34   16   18 am
    35   18   19 1
    36   18   44 1
    37   19   21 1
    38   19   20 1
    39   19   45 1
    40   20   21 1
    41   20   46 1
    42   20   47 1
    43   21   48 1
    44   21   49 1
    45   22   27 ar
    46   22   23 ar
    47   23   24 ar
    48   23   50 1
    49   24   25 ar
    50   24   51 1
    51   25   26 ar
    52   25   52 1
    53   26   27 ar
    54   26   53 1
    55   27   28 1
@<TRIPOS>MOLECULE
ZINC65788764
   58    61     0     0     0
SMALL
USER_CHARGES

@<TRIPOS>ATOM
      1 C1          2.9050    1.4606    1.0994 C.3       1 <0>         0.0965
      2 N1          2.3745    0.0996    0.9874 N.pl3     1 <0>        -0.3644
      3 C2          1.7436   -0.4184   -0.0793 C.2       1 <0>         0.0984
      4 C3          1.4141   -1.7020    0.2151 C.2       1 <0>        -0.2625
      5 C4          1.8581   -1.9746    1.5070 C.2       1 <0>         0.0737
      6 N2          2.4405   -0.8968    1.9729 N.2       1 <0>        -0.3017
      7 C5          0.6934   -2.6289   -0.7319 C.3       1 <0>         0.2450
      8 C6          0.7825   -2.0409   -2.1455 C.3       1 <0>        -0.1269
      9 C7          0.3588   -0.5699   -2.1152 C.3       1 <0>        -0.1095
     10 C8          1.4287    0.2563   -1.3909 C.3       1 <0>        -0.0610
     11 N3          1.3261   -3.9500   -0.7063 N.am      1 <0>        -0.7256
     12 C9          0.9719   -4.8486    0.2337 C.2       1 <0>         0.7050
     13 O1          0.1274   -4.5628    1.0604 O.2       1 <0>        -0.5640
     14 N4          1.5539   -6.0640    0.2573 N.am      1 <0>        -0.6912
     15 C10         1.2583   -6.9614    1.2896 C.ar      1 <0>         0.1804
     16 C11        -0.0223   -7.0085    1.8252 C.ar      1 <0>        -0.0873
     17 C12        -0.3110   -7.8956    2.8434 C.ar      1 <0>        -0.0932
     18 C13         0.6735   -8.7362    3.3301 C.ar      1 <0>        -0.1123
     19 C14         1.9493   -8.6915    2.7993 C.ar      1 <0>        -0.1408
     20 C15         2.2429   -7.8107    1.7764 C.ar      1 <0>        -0.1260
     21 C16         3.0193   -9.6086    3.3332 C.3       1 <0>         0.0487
     22 N5          3.0118  -10.8651    2.5722 N.4       1 <0>        -0.3792
     23 C17         1.7463  -11.5886    2.8189 C.3       1 <0>        -0.0081
     24 C18         2.1426  -13.0861    2.8307 C.3       1 <0>        -0.1432
     25 C19         3.5273  -13.0383    3.5287 C.3       1 <0>        -0.1318
     26 C20         4.1327  -11.7170    3.0099 C.3       1 <0>        -0.0049
     27 C21         5.0498  -11.9952    1.8469 C.2       1 <0>         0.5160
     28 O2          4.8009  -11.5318    0.7540 O.2       1 <0>        -0.5259
     29 N6          6.1466  -12.7588    2.0212 N.am      1 <0>        -0.8235
     30 H1          3.9357    1.4791    0.7450 H         1 <0>         0.0774
     31 H2          2.3007    2.1370    0.4948 H         1 <0>         0.0890
     32 H3          2.8734    1.7783    2.1416 H         1 <0>         0.0921
     33 H4          1.7460   -2.9120    2.0315 H         1 <0>         0.1748
     34 H5         -0.3520   -2.7161   -0.4358 H         1 <0>         0.0984
     35 H6          1.8084   -2.1160   -2.5062 H         1 <0>         0.0723
     36 H7          0.1218   -2.5955   -2.8119 H         1 <0>         0.0786
     37 H8          0.2457   -0.2034   -3.1355 H         1 <0>         0.0837
     38 H9         -0.5908   -0.4762   -1.5884 H         1 <0>         0.0746
     39 H10         1.0524    1.2624   -1.2052 H         1 <0>         0.0846
     40 H11         2.3292    0.3078   -2.0028 H         1 <0>         0.0881
     41 H12         1.9998   -4.1780   -1.3658 H         1 <0>         0.3988
     42 H13         2.1778   -6.3166   -0.4412 H         1 <0>         0.4102
     43 H14        -0.7913   -6.3518    1.4461 H         1 <0>         0.1533
     44 H15        -1.3066   -7.9327    3.2604 H         1 <0>         0.1392
     45 H16         0.4453   -9.4289    4.1267 H         1 <0>         0.1305
     46 H17         3.2385   -7.7794    1.3591 H         1 <0>         0.1324
     47 H18         3.9927   -9.1286    3.2324 H         1 <0>         0.1337
     48 H19         2.8254   -9.8196    4.3848 H         1 <0>         0.1397
     49 H20         1.3256  -11.2998    3.7821 H         1 <0>         0.1367
     50 H21         1.0338  -11.3910    2.0180 H         1 <0>         0.1380
     51 H22         1.4322  -13.6734    3.4124 H         1 <0>         0.1246
     52 H23         2.2300  -13.4749    1.8162 H         1 <0>         0.0995
     53 H24         3.4119  -13.0100    4.6122 H         1 <0>         0.1167
     54 H25         4.1404  -13.8876    3.2274 H         1 <0>         0.1146
     55 H26         4.6840  -11.2225    3.8096 H         1 <0>         0.1682
     56 H27         6.3457  -13.1294    2.8952 H         1 <0>         0.4139
     57 H28         6.7369  -12.9378    1.2726 H         1 <0>         0.4246
     58 H29         3.1007  -10.6667    1.5869 H         1 <0>         0.4313
@<TRIPOS>BOND
     1    1    2 1
     2    1   30 1
     3    1   31 1
     4    1   32 1
     5    2    6 1
     6    2    3 1
     7    3   10 1
     8    3    4 2
     9    4    5 1
    10    4    7 1
    11    5    6 2
    12    5   33 1
    13    7    8 1
    14    7   11 1
    15    7   34 1
    16    8    9 1
    17    8   35 1
    18    8   36 1
    19    9   10 1
    20    9   37 1
    21    9   38 1
    22   10   39 1
    23   10   40 1
    24   11   12 am
    25   11   41 1
    26   12   13 2
    27   12   14 am
    28   14   15 1
    29   14   42 1
    30   15   20 ar
    31   15   16 ar
    32   16   17 ar
    33   16   43 1
    34   17   18 ar
    35   17   44 1
    36   18   19 ar
    37   18   45 1
    38   19   20 ar
    39   19   21 1
    40   20   46 1
    41   21   22 1
    42   21   47 1
    43   21   48 1
    44   22   26 1
    45   22   23 1
    46   22   58 1
    47   23   24 1
    48   23   49 1
    49   23   50 1
    50   24   25 1
    51   24   51 1
    52   24   52 1
    53   25   26 1
    54   25   53 1
    55   25   54 1
    56   26   27 1
    57   26   55 1
    58   27   28 2
    59   27   29 am
    60   29   56 1
    61   29   57 1
@<TRIPOS>MOLECULE
ZINC08789395
   60    64     0     0     0
SMALL
USER_CHARGES
ethyl 4-(carbamoylmethyl-chloro-methyl-trioxo-BLAHyl)benzoate
@<TRIPOS>ATOM
      1 C1         -0.9179    4.6077    1.7785 C.3       1 <0>        -0.1544
      2 C2         -1.1220    3.1136    2.0375 C.3       1 <0>         0.0629
      3 O1         -0.4478    2.7392    3.2678 O.3       1 <0>        -0.3533
      4 C3         -0.5308    1.4474    3.6421 C.2       1 <0>         0.5050
      5 O2         -1.1495    0.6556    2.9591 O.2       1 <0>        -0.4917
      6 C4          0.1295    0.9946    4.8810 C.ar      1 <0>        -0.0993
      7 C5          0.8465    1.9029    5.6650 C.ar      1 <0>        -0.0470
      8 C6          1.4567    1.4777    6.8238 C.ar      1 <0>        -0.1092
      9 C7          1.3703    0.1439    7.2082 C.ar      1 <0>         0.1253
     10 C8          0.6623   -0.7639    6.4280 C.ar      1 <0>        -0.1027
     11 C9          0.0446   -0.3450    5.2709 C.ar      1 <0>        -0.0379
     12 N1          1.9964   -0.2852    8.3819 N.am      1 <0>        -0.5205
     13 C10         1.6001    0.1068    9.5983 C.2       1 <0>         0.5172
     14 O3          0.6794    0.8620    9.8255 O.2       1 <0>        -0.4240
     15 C11         2.4790   -0.5384   10.6452 C.3       1 <0>        -0.1323
     16 H1          1.9114   -1.1312   11.3625 H         1 <0>         0.1939
     17 C12         3.3441    0.5448   11.3234 C.3       1 <0>         0.0594
     18 H2          3.6267    0.2303   12.3280 H         1 <0>         0.1817
     19 C13         4.8413   -0.7198   10.0520 C.3       1 <0>         0.0929
     20 C14         3.4795   -1.3802    9.8047 C.3       1 <0>        -0.1154
     21 H3          3.4715   -2.4371   10.0709 H         1 <0>         0.1904
     22 C15         3.0372   -1.1260    8.3810 C.2       1 <0>         0.5119
     23 O4          3.5482   -1.6068    7.3924 O.2       1 <0>        -0.3966
     24 C16         5.6253   -1.4513   11.1044 C.ar      1 <0>        -0.1963
     25 C17         5.3842   -1.7547   12.4259 C.ar      1 <0>        -0.0310
     26 C18         6.3229   -2.4608   13.1566 C.ar      1 <0>        -0.1111
     27 C19         7.5041   -2.8611   12.5560 C.ar      1 <0>         0.0244
     28 C20         7.7489   -2.5595   11.2313 C.ar      1 <0>        -0.0790
     29 C21         6.8086   -1.8492   10.4890 C.ar      1 <0>         0.1835
     30 N2          6.8244   -1.4307    9.1566 N.am      1 <0>        -0.6343
     31 C22         5.7050   -0.7605    8.8214 C.2       1 <0>         0.5279
     32 O5          5.4442   -0.2827    7.7375 O.2       1 <0>        -0.4200
     33 C23         9.0375   -3.0005   10.5863 C.3       1 <0>        -0.1329
     34 Cl1         8.6826   -3.7469   13.4726 Cl        1 <0>        -0.0166
     35 C24         2.5891    1.8746   11.3734 C.3       1 <0>        -0.1734
     36 C25         3.3991    2.8834   12.1462 C.2       1 <0>         0.5160
     37 O6          4.4744    2.5697   12.6112 O.2       1 <0>        -0.5525
     38 N3          2.9286    4.1343   12.3206 N.am      1 <0>        -0.8314
     39 H4          0.1477    4.8184    1.6876 H         1 <0>         0.0679
     40 H5         -1.3320    5.1802    2.6085 H         1 <0>         0.0681
     41 H6         -1.4239    4.8888    0.8549 H         1 <0>         0.0855
     42 H7         -2.1875    2.9029    2.1284 H         1 <0>         0.0752
     43 H8         -0.7079    2.5411    1.2076 H         1 <0>         0.0750
     44 H9          0.9181    2.9378    5.3646 H         1 <0>         0.1539
     45 H10         2.0071    2.1798    7.4325 H         1 <0>         0.1325
     46 H11         0.5971   -1.7988    6.7299 H         1 <0>         0.1407
     47 H12        -0.5050   -1.0505    4.6655 H         1 <0>         0.1544
     48 H13         4.4617   -1.4412   12.8920 H         1 <0>         0.1486
     49 H14         6.1348   -2.6988   14.1932 H         1 <0>         0.1603
     50 H15         7.5563   -1.6030    8.5438 H         1 <0>         0.4395
     51 H16         9.7918   -2.2241   10.7134 H         1 <0>         0.0905
     52 H17         9.3819   -3.9221   11.0556 H         1 <0>         0.0913
     53 H18         8.8707   -3.1745    9.5232 H         1 <0>         0.0746
     54 H19         2.4273    2.2390   10.3589 H         1 <0>         0.1211
     55 H20         1.6271    1.7280   11.8646 H         1 <0>         0.1648
     56 H21         2.0686    4.3852   11.9487 H         1 <0>         0.4132
     57 H22         3.4500    4.7836   12.8180 H         1 <0>         0.4179
     58 N4          4.5312    0.6360   10.4704 N.4       1 <0>        -0.4960
     59 H23         5.3175    1.0334   10.9977 H         1 <0>         0.4585
     60 H24         4.3358    1.2243    9.6519 H         1 <0>         0.4326
@<TRIPOS>BOND
     1    1    2 1
     2    1   39 1
     3    1   40 1
     4    1   41 1
     5    2    3 1
     6    2   42 1
     7    2   43 1
     8    3    4 1
     9    4    5 2
    10    4    6 1
    11    6   11 ar
    12    6    7 ar
    13    7    8 ar
    14    7   44 1
    15    8    9 ar
    16    8   45 1
    17    9   10 ar
    18    9   12 1
    19   10   11 ar
    20   10   46 1
    21   11   47 1
    22   12   22 am
    23   12   13 am
    24   13   14 2
    25   13   15 1
    26   15   16 1
    27   15   20 1
    28   15   17 1
    29   17   18 1
    30   17   35 1
    31   17   58 1
    32   19   31 1
    33   19   20 1
    34   19   24 1
    35   19   58 1
    36   20   21 1
    37   20   22 1
    38   22   23 2
    39   24   29 ar
    40   24   25 ar
    41   25   26 ar
    42   25   48 1
    43   26   27 ar
    44   26   49 1
    45   27   28 ar
    46   27   34 1
    47   28   29 ar
    48   28   33 1
    49   29   30 1
    50   30   31 am
    51   30   50 1
    52   31   32 2
    53   33   51 1
    54   33   52 1
    55   33   53 1
    56   35   36 1
    57   35   54 1
    58   35   55 1
    59   36   37 2
    60   36   38 am
    61   38   56 1
    62   38   57 1
    63   58   59 1
    64   58   60 1
@<TRIPOS>MOLECULE
ZINC12878248
   63    67     0     0     0
SMALL
USER_CHARGES
ethyl 4-[(3aS,4R,6R,6aR)-4-(2-amino-2-oxo-ethyl)-6',7'-dimethyl-1,2',3-trioxo-spiro[3a,4,5,6a-tetrahydropyrrolo[3,4-c]pyrrole-6,3'-indoline]-2-yl]benzoate
@<TRIPOS>ATOM
      1 C1          6.3496    2.9018   -2.4287 C.3       1 <0>        -0.1546
      2 C2          5.6394    2.9670   -1.0750 C.3       1 <0>         0.0630
      3 O1          4.4037    2.2072   -1.1396 O.3       1 <0>        -0.3525
      4 C3          3.6533    2.1635   -0.0213 C.2       1 <0>         0.5065
      5 O2          4.0214    2.7444    0.9803 O.2       1 <0>        -0.4941
      6 C4          2.3849    1.4105   -0.0132 C.ar      1 <0>        -0.1013
      7 C5          1.9595    0.7421   -1.1648 C.ar      1 <0>        -0.0483
      8 C6          0.7750    0.0402   -1.1533 C.ar      1 <0>        -0.1071
      9 C7          0.0021   -0.0041    0.0020 C.ar      1 <0>         0.1251
     10 C8          0.4217    0.6601    1.1496 C.ar      1 <0>        -0.0995
     11 C9          1.6051    1.3640    1.1459 C.ar      1 <0>        -0.0421
     12 N1         -1.1998   -0.7176    0.0097 N.am      1 <0>        -0.5110
     13 C10        -2.3930   -0.1238    0.1281 C.2       1 <0>         0.5349
     14 O3         -2.5734    1.0698    0.2384 O.2       1 <0>        -0.4235
     15 C11        -3.4816   -1.1730    0.0996 C.3       1 <0>        -0.1386
     16 H1         -4.2034   -1.0134   -0.7014 H         1 <0>         0.1836
     17 C12        -4.1323   -1.2583    1.4969 C.3       1 <0>         0.0547
     18 H2         -3.5086   -0.7569    2.2370 H         1 <0>         0.1679
     19 C13        -2.9602   -3.2642    1.2500 C.3       1 <0>         0.0959
     20 C14        -2.6925   -2.5032   -0.0538 C.3       1 <0>        -0.1180
     21 H3         -2.9806   -3.0647   -0.9425 H         1 <0>         0.1849
     22 C15        -1.2506   -2.0505   -0.0951 C.2       1 <0>         0.5285
     23 O4         -0.2900   -2.7814   -0.2064 O.2       1 <0>        -0.4216
     24 C16        -3.0617   -4.7444    1.0152 C.ar      1 <0>        -0.2041
     25 C17        -3.8858   -5.5271    0.2377 C.ar      1 <0>        -0.0434
     26 C18        -3.7317   -6.9020    0.2316 C.ar      1 <0>        -0.1224
     27 C19        -2.7480   -7.4877    1.0075 C.ar      1 <0>        -0.0086
     28 C20        -1.9197   -6.7079    1.7874 C.ar      1 <0>        -0.0863
     29 C21        -2.0681   -5.3229    1.7995 C.ar      1 <0>         0.1745
     30 N2         -1.3651   -4.3360    2.4939 N.am      1 <0>        -0.6303
     31 C22        -1.8267   -3.0994    2.2253 C.2       1 <0>         0.5205
     32 O5         -1.4093   -2.0558    2.6810 O.2       1 <0>        -0.4417
     33 C23        -0.8513   -7.3563    2.6294 C.3       1 <0>        -0.1305
     34 C24        -2.5806   -8.9854    1.0012 C.3       1 <0>        -0.1349
     35 C25        -5.5304   -0.6374    1.4719 C.3       1 <0>        -0.1633
     36 C26        -6.0974   -0.6201    2.8681 C.2       1 <0>         0.5126
     37 O6         -5.4472   -1.0609    3.7921 O.2       1 <0>        -0.5510
     38 N3         -7.3269   -0.1147    3.0899 N.am      1 <0>        -0.8331
     39 H4          5.7035    3.3236   -3.1986 H         1 <0>         0.0684
     40 H5          7.2772    3.4721   -2.3802 H         1 <0>         0.0851
     41 H6          6.5739    1.8631   -2.6716 H         1 <0>         0.0682
     42 H7          5.4151    4.0056   -0.8321 H         1 <0>         0.0747
     43 H8          6.2855    2.5452   -0.3051 H         1 <0>         0.0744
     44 H9          2.5594    0.7758   -2.0622 H         1 <0>         0.1543
     45 H10         0.4479   -0.4802   -2.0413 H         1 <0>         0.1388
     46 H11        -0.1815    0.6240    2.0447 H         1 <0>         0.1404
     47 H12         1.9302    1.8799    2.0373 H         1 <0>         0.1528
     48 H13        -4.6533   -5.0674   -0.3673 H         1 <0>         0.1418
     49 H14        -4.3777   -7.5164   -0.3780 H         1 <0>         0.1491
     50 H15        -0.6297   -4.5197    3.0992 H         1 <0>         0.4369
     51 H16        -1.2566   -7.5904    3.6137 H         1 <0>         0.0845
     52 H17        -0.5156   -8.2742    2.1469 H         1 <0>         0.0891
     53 H18        -0.0087   -6.6731    2.7365 H         1 <0>         0.0679
     54 H19        -3.2032   -9.4239    1.7811 H         1 <0>         0.0890
     55 H20        -2.8816   -9.3806    0.0310 H         1 <0>         0.0822
     56 H21        -1.5360   -9.2350    1.1870 H         1 <0>         0.0831
     57 H22        -5.4684    0.3824    1.0922 H         1 <0>         0.1573
     58 H23        -6.1785   -1.2276    0.8239 H         1 <0>         0.1325
     59 H24        -7.8470    0.2379    2.3508 H         1 <0>         0.4122
     60 H25        -7.6919   -0.1035    3.9886 H         1 <0>         0.4174
     61 N4         -4.1904   -2.6956    1.7726 N.4       1 <0>        -0.4845
     62 H26        -5.0023   -3.1143    1.3038 H         1 <0>         0.4405
     63 H27        -4.2563   -2.8606    2.7838 H         1 <0>         0.4529
@<TRIPOS>BOND
     1    1    2 1
     2    1   39 1
     3    1   40 1
     4    1   41 1
     5    2    3 1
     6    2   42 1
     7    2   43 1
     8    3    4 1
     9    4    5 2
    10    4    6 1
    11    6   11 ar
    12    6    7 ar
    13    7    8 ar
    14    7   44 1
    15    8    9 ar
    16    8   45 1
    17    9   10 ar
    18    9   12 1
    19   10   11 ar
    20   10   46 1
    21   11   47 1
    22   12   22 am
    23   12   13 am
    24   13   14 2
    25   13   15 1
    26   15   16 1
    27   15   20 1
    28   15   17 1
    29   17   18 1
    30   17   35 1
    31   17   61 1
    32   19   31 1
    33   19   20 1
    34   19   24 1
    35   19   61 1
    36   20   21 1
    37   20   22 1
    38   22   23 2
    39   24   29 ar
    40   24   25 ar
    41   25   26 ar
    42   25   48 1
    43   26   27 ar
    44   26   49 1
    45   27   28 ar
    46   27   34 1
    47   28   29 ar
    48   28   33 1
    49   29   30 1
    50   30   31 am
    51   30   50 1
    52   31   32 2
    53   33   51 1
    54   33   52 1
    55   33   53 1
    56   34   54 1
    57   34   55 1
    58   34   56 1
    59   35   36 1
    60   35   57 1
    61   35   58 1
    62   36   37 2
    63   36   38 am
    64   38   59 1
    65   38   60 1
    66   61   62 1
    67   61   63 1
@<TRIPOS>MOLECULE
ZINC20873256
   56    56     0     0     0
SMALL
USER_CHARGES
2-[4-bromo-2-[[2-[[(2S)-2-hydroxypropyl]amino]ethylamino]methyl]phenoxy]-N-tert-butyl-acetamide
@<TRIPOS>ATOM
      1 C1          8.3611    6.5316   -5.7158 C.3       1 <0>        -0.1522
      2 C2          7.8722    6.3696   -4.2751 C.3       1 <0>         0.1147
      3 H1          7.7555    7.3456   -3.7814 H         1 <0>         0.0645
      4 C3          6.5596    5.5835   -4.2673 C.3       1 <0>         0.0168
      5 N1          6.0285    5.5309   -2.8987 N.3       1 <0>        -0.6643
      6 C4          4.7656    4.7820   -2.8525 C.3       1 <0>         0.0226
      7 C5          4.2445    4.7489   -1.4144 C.3       1 <0>        -0.0009
      8 N2          2.9816    4.0001   -1.3682 N.4       1 <0>        -0.5357
      9 C6          2.4504    3.9475    0.0004 C.3       1 <0>         0.0608
     10 C7          1.1576    3.1732    0.0081 C.ar      1 <0>        -0.1841
     11 C8         -0.0500    3.8443    0.0233 C.ar      1 <0>        -0.0232
     12 C9         -1.2370    3.1340    0.0303 C.ar      1 <0>        -0.1289
     13 C10        -1.2177    1.7506    0.0173 C.ar      1 <0>        -0.0157
     14 C11        -0.0126    1.0758    0.0080 C.ar      1 <0>        -0.1984
     15 C12         1.1792    1.7863    0.0004 C.ar      1 <0>         0.1653
     16 O1          2.3661    1.1243   -0.0150 O.3       1 <0>        -0.2962
     17 C13         2.3123   -0.3037   -0.0227 C.3       1 <0>         0.0326
     18 C14         3.7132   -0.8590   -0.0395 C.2       1 <0>         0.5211
     19 O2          4.6640   -0.1061   -0.0445 O.2       1 <0>        -0.5246
     20 N3          3.9095   -2.1924   -0.0491 N.am      1 <0>        -0.7241
     21 C15         5.2713   -2.7322   -0.0655 C.3       1 <0>         0.1748
     22 C16         6.0234   -2.2568    1.1792 C.3       1 <0>        -0.1683
     23 C17         5.2138   -4.2611   -0.0737 C.3       1 <0>        -0.1611
     24 C18         5.9990   -2.2425   -1.3191 C.3       1 <0>        -0.1665
     25 Br1        -2.8883    4.0552    0.0499 Br        1 <0>        -0.0173
     26 O3          8.8549    5.6634   -3.5151 O.3       1 <0>        -0.5950
     27 H2          9.3048    7.0968   -5.7214 H         1 <0>         0.0715
     28 H3          7.6046    7.0753   -6.3007 H         1 <0>         0.0751
     29 H4          8.5254    5.5392   -6.1610 H         1 <0>         0.0643
     30 H5          5.8308    6.0803   -4.9246 H         1 <0>         0.0875
     31 H6          6.7424    4.5610   -4.6292 H         1 <0>         0.0495
     32 H7          6.7574    5.0342   -2.2414 H         1 <0>         0.3454
     33 H8          4.0242    5.2731   -3.4999 H         1 <0>         0.0937
     34 H9          4.9359    3.7539   -3.2045 H         1 <0>         0.0546
     35 H10         4.9859    4.2577   -0.7670 H         1 <0>         0.1303
     36 H11         4.0742    5.7770   -1.0623 H         1 <0>         0.1382
     37 H12         2.2402    4.4913   -2.0156 H         1 <0>         0.4471
     38 H13         3.1792    3.4508    0.6577 H         1 <0>         0.1414
     39 H14         2.2675    4.9700    0.3623 H         1 <0>         0.1382
     40 H15        -0.0673    4.9241    0.0293 H         1 <0>         0.1512
     41 H16        -2.1456    1.1979    0.0187 H         1 <0>         0.1495
     42 H17         0.0021   -0.0041    0.0020 H         1 <0>         0.1490
     43 H18         1.7891   -0.6558    0.8786 H         1 <0>         0.1046
     44 H19         1.7716   -0.6455   -0.9176 H         1 <0>         0.1033
     45 H20         3.0472   -2.8753   -0.0446 H         1 <0>         0.4254
     46 H21         7.0459   -2.6621    1.1669 H         1 <0>         0.0692
     47 H22         5.5002   -2.6089    2.0805 H         1 <0>         0.0568
     48 H23         6.0647   -1.1576    1.1851 H         1 <0>         0.0760
     49 H24         6.2363   -4.6664   -0.0860 H         1 <0>         0.0798
     50 H25         4.6731   -4.6029   -0.9686 H         1 <0>         0.0654
     51 H26         4.6906   -4.6132    0.8276 H         1 <0>         0.0661
     52 H27         7.0215   -2.6478   -1.3314 H         1 <0>         0.0693
     53 H28         6.0403   -1.1433   -1.3132 H         1 <0>         0.0745
     54 H29         5.4583   -2.5843   -2.2140 H         1 <0>         0.0555
     55 H30         8.6786    5.4511   -2.4503 H         1 <0>         0.4002
     56 H31         3.1518    2.9719   -1.7202 H         1 <0>         0.4508
@<TRIPOS>BOND
     1    1    2 1
     2    1   27 1
     3    1   28 1
     4    1   29 1
     5    2    3 1
     6    2    4 1
     7    2   26 1
     8    4    5 1
     9    4   30 1
    10    4   31 1
    11    5    6 1
    12    5   32 1
    13    6    7 1
    14    6   33 1
    15    6   34 1
    16    7    8 1
    17    7   35 1
    18    7   36 1
    19    8    9 1
    20    8   37 1
    21    8   56 1
    22    9   10 1
    23    9   38 1
    24    9   39 1
    25   10   15 ar
    26   10   11 ar
    27   11   12 ar
    28   11   40 1
    29   12   13 ar
    30   12   25 1
    31   13   14 ar
    32   13   41 1
    33   14   15 ar
    34   14   42 1
    35   15   16 1
    36   16   17 1
    37   17   18 1
    38   17   43 1
    39   17   44 1
    40   18   19 2
    41   18   20 am
    42   20   21 1
    43   20   45 1
    44   21   22 1
    45   21   23 1
    46   21   24 1
    47   22   46 1
    48   22   47 1
    49   22   48 1
    50   23   49 1
    51   23   50 1
    52   23   51 1
    53   24   52 1
    54   24   53 1
    55   24   54 1
    56   26   55 1
@<TRIPOS>MOLECULE
ZINC39676519
   67    71     0     0     0
SMALL
USER_CHARGES

@<TRIPOS>ATOM
      1 C1          3.1653   -0.1927   -1.0292 C.3       1 <0>        -0.1568
      2 C2          1.8229    0.1541   -0.3822 C.3       1 <0>         0.1395
      3 H1          1.7206    1.2343   -0.2789 H         1 <0>         0.0945
      4 C3          0.6831   -0.4059   -1.2033 C.2       1 <0>        -0.3690
      5 C4          0.0172   -1.2730   -0.4167 C.2       1 <0>         0.2102
      6 N1          0.5848   -1.3459    0.8170 N.pl3     1 <0>        -0.5789
      7 O1          1.7067   -0.4831    0.8986 O.3       1 <0>        -0.1414
      8 C5         -1.1956   -2.0576   -0.8463 C.3       1 <0>        -0.1117
      9 C6          0.3744   -0.0804   -2.5446 C.2       1 <0>         0.6467
     10 O2          1.0007   -0.5923   -3.4550 O.2       1 <0>        -0.5306
     11 N2         -0.6129    0.7962   -2.8153 N.am      1 <0>        -0.6151
     12 C7         -1.4059    1.5967   -1.8527 C.3       1 <0>         0.1198
     13 C8         -1.5706    2.9743   -2.5330 C.3       1 <0>        -0.1151
     14 H2         -2.5613    3.3813   -2.3309 H         1 <0>         0.1160
     15 C9         -1.4039    2.6923   -4.0356 C.3       1 <0>        -0.0725
     16 C10        -1.1464    1.1824   -4.1435 C.3       1 <0>         0.1045
     17 C11        -0.2110    3.4656   -4.5893 C.3       1 <0>        -0.1462
     18 C12        -0.1002    3.2140   -6.0957 C.3       1 <0>        -0.0096
     19 N3         -1.3378    3.6441   -6.7577 N.4       1 <0>        -0.5045
     20 C13        -2.4662    2.8319   -6.2868 C.3       1 <0>        -0.0100
     21 C14        -2.6768    3.0672   -4.7884 C.3       1 <0>        -0.1334
     22 C15        -0.5053    3.9266   -2.0542 C.2       1 <0>         0.5145
     23 O3          0.5556    3.4976   -1.6525 O.2       1 <0>        -0.5127
     24 N4         -0.7316    5.2551   -2.0723 N.am      1 <0>        -0.7317
     25 C16         0.3039    6.1810   -1.6068 C.3       1 <0>         0.1211
     26 C17        -0.2039    7.6188   -1.7317 C.3       1 <0>        -0.0489
     27 C18         0.8613    8.5712   -1.2529 C.2       1 <0>        -0.1808
     28 C19         1.9748    9.1019   -2.0432 C.ar      1 <0>        -0.0898
     29 C20         2.3933    8.9331   -3.3644 C.ar      1 <0>        -0.0660
     30 C21         3.5155    9.5937   -3.8132 C.ar      1 <0>        -0.0552
     31 C22         4.2301   10.4239   -2.9590 C.ar      1 <0>        -0.0902
     32 C23         3.8293   10.6002   -1.6528 C.ar      1 <0>        -0.1093
     33 C24         2.6990    9.9433   -1.1790 C.ar      1 <0>         0.0997
     34 N5          2.0616    9.9163    0.0420 N.pl3     1 <0>        -0.5893
     35 C25         0.9665    9.0986   -0.0230 C.2       1 <0>         0.0764
     36 Cl1         4.0401    9.3872   -5.4551 Cl        1 <0>        -0.0716
     37 H3          3.2632   -1.2757   -1.1047 H         1 <0>         0.0633
     38 H4          3.2127    0.2467   -2.0256 H         1 <0>         0.0717
     39 H5          3.9763    0.2037   -0.4183 H         1 <0>         0.0626
     40 H6          0.2663   -1.9086    1.5401 H         1 <0>         0.4484
     41 H7         -0.8799   -3.0087   -1.2750 H         1 <0>         0.0945
     42 H8         -1.8335   -2.2426    0.0179 H         1 <0>         0.0842
     43 H9         -1.7505   -1.4891   -1.5925 H         1 <0>         0.0859
     44 H10        -2.3797    1.1360   -1.6868 H         1 <0>         0.0846
     45 H11        -0.8679    1.7001   -0.9104 H         1 <0>         0.0984
     46 H12        -0.4122    0.9773   -4.9227 H         1 <0>         0.0877
     47 H13        -2.0773    0.6536   -4.3480 H         1 <0>         0.0825
     48 H14        -0.3520    4.5311   -4.4077 H         1 <0>         0.0955
     49 H15         0.7011    3.1295   -4.0962 H         1 <0>         0.1226
     50 H16         0.7414    3.7783   -6.4972 H         1 <0>         0.1382
     51 H17         0.0570    2.1505   -6.2756 H         1 <0>         0.1348
     52 H18        -1.5118    4.6149   -6.5445 H         1 <0>         0.4272
     53 H19        -3.3684    3.1148   -6.8291 H         1 <0>         0.1393
     54 H20        -2.2528    1.7775   -6.4623 H         1 <0>         0.1329
     55 H21        -3.5032    2.4500   -4.4358 H         1 <0>         0.1214
     56 H22        -2.9066    4.1183   -4.6138 H         1 <0>         0.0969
     57 H23        -1.5801    5.5983   -2.3935 H         1 <0>         0.3983
     58 H24         0.5395    5.9682   -0.5640 H         1 <0>         0.0724
     59 H25         1.2007    6.0583   -2.2142 H         1 <0>         0.0709
     60 H26        -0.4394    7.8316   -2.7745 H         1 <0>         0.0741
     61 H27        -1.1006    7.7415   -1.1243 H         1 <0>         0.0788
     62 H28         1.8403    8.2877   -4.0308 H         1 <0>         0.1267
     63 H29         5.1088   10.9359   -3.3223 H         1 <0>         0.1393
     64 H30         4.3923   11.2484   -0.9976 H         1 <0>         0.1333
     65 H31         0.2884    8.9043    0.7949 H         1 <0>         0.1745
     66 H32         2.3449   10.4067    0.8295 H         1 <0>         0.4226
     67 H33        -1.2395    3.5342   -7.7558 H         1 <0>         0.4339
@<TRIPOS>BOND
     1    1    2 1
     2    1   37 1
     3    1   38 1
     4    1   39 1
     5    2    3 1
     6    2    7 1
     7    2    4 1
     8    4    5 2
     9    4    9 1
    10    5    6 1
    11    5    8 1
    12    6    7 1
    13    6   40 1
    14    8   41 1
    15    8   42 1
    16    8   43 1
    17    9   10 2
    18    9   11 am
    19   11   16 1
    20   11   12 1
    21   12   13 1
    22   12   44 1
    23   12   45 1
    24   13   14 1
    25   13   15 1
    26   13   22 1
    27   15   21 1
    28   15   16 1
    29   15   17 1
    30   16   46 1
    31   16   47 1
    32   17   18 1
    33   17   48 1
    34   17   49 1
    35   18   19 1
    36   18   50 1
    37   18   51 1
    38   19   20 1
    39   19   52 1
    40   19   67 1
    41   20   21 1
    42   20   53 1
    43   20   54 1
    44   21   55 1
    45   21   56 1
    46   22   23 2
    47   22   24 am
    48   24   25 1
    49   24   57 1
    50   25   26 1
    51   25   58 1
    52   25   59 1
    53   26   60 1
    54   26   61 1
    55   26   27 1
    56   27   28 1
    57   27   35 2
    58   28   29 ar
    59   28   33 ar
    60   29   30 ar
    61   29   62 1
    62   30   31 ar
    63   30   36 1
    64   31   32 ar
    65   31   63 1
    66   32   33 ar
    67   32   64 1
    68   33   34 1
    69   34   66 1
    70   34   35 1
    71   35   65 1
@<TRIPOS>MOLECULE
ZINC15936058
   55    58     0     0     0
SMALL
USER_CHARGES

@<TRIPOS>ATOM
      1 C1         -0.0184    1.5028    0.0103 C.3       1 <0>        -0.1660
      2 C2          0.0021   -0.0041    0.0020 C.2       1 <0>         0.1671
      3 N1          0.0216   -0.6591    1.1226 N.2       1 <0>        -0.2223
      4 N2          0.0237    0.0348    2.3397 N.am      1 <0>        -0.5597
      5 C3          0.0440   -0.6453    3.5031 C.2       1 <0>         0.6214
      6 O1          0.0605   -1.8615    3.4964 O.2       1 <0>        -0.5000
      7 C4          0.0462    0.0852    4.7843 C.2       1 <0>        -0.0320
      8 C5          0.0712   -0.4821    6.0268 C.2       1 <0>         0.0741
      9 N3          0.0645    0.5329    6.9194 N.pl3     1 <0>        -0.2903
     10 N4          0.0348    1.7229    6.1785 N.2       1 <0>         0.0104
     11 N5          0.0298    1.4220    4.9267 N.2       1 <0>        -0.1586
     12 C6          0.0830    0.4181    8.3140 C.2       1 <0>         0.2863
     13 C7          0.0695    1.5319    9.2666 C.2       1 <0>         0.3589
     14 N6          0.0938    1.0390   10.4744 N.2       1 <0>        -0.3097
     15 O2          0.1233   -0.3733   10.3660 O.3       1 <0>         0.0780
     16 N7          0.1097   -0.6973    8.9870 N.2       1 <0>        -0.2879
     17 N8          0.0367    2.8827    8.9392 N.pl3     1 <0>        -0.7966
     18 C8          0.1001   -1.9556    6.3415 C.3       1 <0>         0.0592
     19 N9         -1.2752   -2.4580    6.4603 N.4       1 <0>        -0.3754
     20 C9         -1.9302   -1.8199    7.6085 C.3       1 <0>        -0.0211
     21 C10        -3.3878   -2.2784    7.6886 C.3       1 <0>        -0.1414
     22 C11        -3.4301   -3.8001    7.8556 C.3       1 <0>        -0.1383
     23 C12        -2.6797   -4.4526    6.6910 C.3       1 <0>        -0.1440
     24 C13        -1.2482   -3.9135    6.6479 C.3       1 <0>        -0.0072
     25 C14        -0.0001   -0.7340   -1.2783 C.ar      1 <0>        -0.0936
     26 C15        -0.0153   -0.0331   -2.4863 C.ar      1 <0>        -0.0715
     27 C16        -0.0168   -0.7222   -3.6808 C.ar      1 <0>        -0.1312
     28 C17        -0.0038   -2.1066   -3.6880 C.ar      1 <0>        -0.0763
     29 C18         0.0108   -2.8117   -2.4995 C.ar      1 <0>        -0.1528
     30 C19         0.0188   -2.1354   -1.2905 C.ar      1 <0>         0.1507
     31 O3          0.0389   -2.8273   -0.1221 O.3       1 <0>        -0.4736
     32 H1          1.0042    1.8801    0.0026 H         1 <0>         0.0957
     33 H2         -0.5455    1.8639   -0.8728 H         1 <0>         0.0978
     34 H3         -0.5286    1.8543    0.9071 H         1 <0>         0.0724
     35 H4          0.0105    1.0047    2.3450 H         1 <0>         0.3959
     36 H5          0.0207    3.1560    8.0086 H         1 <0>         0.4294
     37 H6          0.0300    3.5520    9.6413 H         1 <0>         0.4314
     38 H7          0.6136   -2.4881    5.5410 H         1 <0>         0.1864
     39 H8          0.6280   -2.1160    7.2816 H         1 <0>         0.1580
     40 H9         -1.4106   -2.1004    8.5247 H         1 <0>         0.1473
     41 H10        -1.8964   -0.7369    7.4898 H         1 <0>         0.1006
     42 H11        -3.8719   -1.8050    8.5428 H         1 <0>         0.1135
     43 H12        -3.9084   -1.9981    6.7729 H         1 <0>         0.0880
     44 H13        -2.9545   -4.0769    8.7965 H         1 <0>         0.0858
     45 H14        -4.4664   -4.1380    7.8565 H         1 <0>         0.0980
     46 H15        -2.6575   -5.5332    6.8321 H         1 <0>         0.1189
     47 H16        -3.1856   -4.2175    5.7546 H         1 <0>         0.0898
     48 H17        -0.7110   -4.3762    5.8199 H         1 <0>         0.1417
     49 H18        -0.7432   -4.1495    7.5845 H         1 <0>         0.1352
     50 H19        -0.0261    1.0469   -2.4849 H         1 <0>         0.1361
     51 H20        -0.0285   -0.1796   -4.6146 H         1 <0>         0.1352
     52 H21        -0.0054   -2.6386   -4.6279 H         1 <0>         0.1341
     53 H22         0.0206   -3.8916   -2.5132 H         1 <0>         0.1358
     54 H23        -0.8386   -3.0398    0.2243 H         1 <0>         0.3896
     55 H24        -1.7865   -2.2377    5.6188 H         1 <0>         0.4266
@<TRIPOS>BOND
     1    1    2 1
     2    1   32 1
     3    1   33 1
     4    1   34 1
     5    2    3 2
     6    2   25 1
     7    3    4 1
     8    4    5 am
     9    4   35 1
    10    5    6 2
    11    5    7 1
    12    7   11 1
    13    7    8 2
    14    8    9 1
    15    8   18 1
    16    9   10 1
    17    9   12 1
    18   10   11 2
    19   12   16 2
    20   12   13 1
    21   13   14 2
    22   13   17 1
    23   14   15 1
    24   15   16 1
    25   17   36 1
    26   17   37 1
    27   18   19 1
    28   18   38 1
    29   18   39 1
    30   19   24 1
    31   19   20 1
    32   19   55 1
    33   20   21 1
    34   20   40 1
    35   20   41 1
    36   21   22 1
    37   21   42 1
    38   21   43 1
    39   22   23 1
    40   22   44 1
    41   22   45 1
    42   23   24 1
    43   23   46 1
    44   23   47 1
    45   24   48 1
    46   24   49 1
    47   25   30 ar
    48   25   26 ar
    49   26   27 ar
    50   26   50 1
    51   27   28 ar
    52   27   51 1
    53   28   29 ar
    54   28   52 1
    55   29   30 ar
    56   29   53 1
    57   30   31 1
    58   31   54 1
@<TRIPOS>MOLECULE
ZINC08637257
   44    47     0     0     0
SMALL
USER_CHARGES
(2S,3S,4R,5S)-2-[6-amino-8-((N'E)-N'-(2-furylmethylene)hydrazino)purin-9-yl]-5-(hydroxymethyl)tetrahydrofuran-3,4-diol
@<TRIPOS>ATOM
      1 C1          9.2642    3.4817    3.5529 C.2       1 <0>        -0.2187
      2 C2          8.1772    2.7505    3.0382 C.2       1 <0>        -0.1612
      3 C3          7.4418    3.6188    2.2849 C.2       1 <0>         0.0213
      4 O1          8.0379    4.8267    2.3387 O.3       1 <0>        -0.1548
      5 C4          9.1391    4.7470    3.1040 C.2       1 <0>        -0.0136
      6 C5          6.2145    3.2960    1.5505 C.2       1 <0>         0.1235
      7 N1          5.6013    4.2200    0.8703 N.2       1 <0>        -0.1791
      8 N2          4.4285    3.9115    0.1686 N.pl3     1 <0>        -0.5404
      9 C6          3.7782    4.8915   -0.5528 C.2       1 <0>         0.5577
     10 N3          4.1687    6.1384   -0.6535 N.2       1 <0>        -0.4603
     11 C7          3.2939    6.8227   -1.4312 C.ar      1 <0>        -0.0355
     12 C8          3.1998    8.1535   -1.8715 C.ar      1 <0>         0.4363
     13 N4          2.1773    8.4926   -2.6498 N.ar      1 <0>        -0.5655
     14 C9          1.2660    7.6059   -3.0061 C.ar      1 <0>         0.3373
     15 N5          1.3136    6.3488   -2.6172 N.ar      1 <0>        -0.5264
     16 C10         2.2995    5.9179   -1.8378 C.ar      1 <0>         0.3039
     17 N6          2.6296    4.7074   -1.2742 N.pl3     1 <0>        -0.4814
     18 C11         1.8853    3.4534   -1.4148 C.3       1 <0>         0.3048
     19 H1          1.1635    3.5306   -2.2280 H         1 <0>         0.1365
     20 C12         1.1719    3.1000   -0.0910 C.3       1 <0>         0.0762
     21 H2          1.6773    3.5702    0.7525 H         1 <0>         0.0837
     22 C13         1.2864    1.5618   -0.0018 C.3       1 <0>         0.0452
     23 H3          1.8473    1.2693    0.8858 H         1 <0>         0.0869
     24 C14         2.0554    1.1677   -1.2823 C.3       1 <0>         0.0452
     25 H4          1.3585    0.8931   -2.0742 H         1 <0>         0.1054
     26 O2          2.7922    2.3542   -1.6501 O.3       1 <0>        -0.3536
     27 C15         3.0161    0.0127   -0.9925 C.3       1 <0>         0.0826
     28 O3          3.6305   -0.4128   -2.2105 O.3       1 <0>        -0.5606
     29 O4         -0.0110    0.9628    0.0073 O.3       1 <0>        -0.5370
     30 O5         -0.1997    3.4981   -0.1396 O.3       1 <0>        -0.5259
     31 N7          4.1513    9.0907   -1.5033 N.pl3     1 <0>        -0.7423
     32 H5         10.0485    3.1019    4.1910 H         1 <0>         0.1551
     33 H6          7.9670    1.7045    3.2054 H         1 <0>         0.1560
     34 H7          9.8129    5.5619    3.3235 H         1 <0>         0.2082
     35 H8          5.8195    2.2911    1.5743 H         1 <0>         0.1452
     36 H9          4.0738    3.0090    0.1899 H         1 <0>         0.3984
     37 H10         0.4509    7.9237   -3.6395 H         1 <0>         0.2080
     38 H11         3.7845    0.3456   -0.2949 H         1 <0>         0.0552
     39 H12         2.4633   -0.8185   -0.5547 H         1 <0>         0.0705
     40 H13         4.2537   -1.1443   -2.1020 H         1 <0>         0.3878
     41 H14         0.0021   -0.0041    0.0020 H         1 <0>         0.3900
     42 H15        -0.7101    3.2467    0.6422 H         1 <0>         0.3941
     43 H16         4.1690    9.1740   -0.5069 H         1 <0>         0.3688
     44 H17         4.0755   10.0066   -1.8137 H         1 <0>         0.3728
@<TRIPOS>BOND
     1    1    5 2
     2    1    2 1
     3    1   32 1
     4    2    3 2
     5    2   33 1
     6    3    4 1
     7    3    6 1
     8    4    5 1
     9    5   34 1
    10    6    7 2
    11    6   35 1
    12    7    8 1
    13    8    9 1
    14    8   36 1
    15    9   17 1
    16    9   10 2
    17   10   11 1
    18   11   16 ar
    19   11   12 ar
    20   12   13 ar
    21   12   31 1
    22   13   14 ar
    23   14   15 ar
    24   14   37 1
    25   15   16 ar
    26   16   17 1
    27   17   18 1
    28   18   19 1
    29   18   26 1
    30   18   20 1
    31   20   21 1
    32   20   22 1
    33   20   30 1
    34   22   23 1
    35   22   24 1
    36   22   29 1
    37   24   25 1
    38   24   26 1
    39   24   27 1
    40   27   28 1
    41   27   38 1
    42   27   39 1
    43   28   40 1
    44   29   41 1
    45   30   42 1
    46   31   43 1
    47   31   44 1
@<TRIPOS>MOLECULE
ZINC31166806
   67    70     0     0     0
SMALL
USER_CHARGES
(2S,3S)-3,5-dihydroxy-2-(4-hydroxyphenyl)-6-(3-methylbut-2-enyl)-7-[(2S,3S,4R,5S,6S)-3,4,5-trihydroxy-6-(hydroxymethyl)tetrahydropyran-2-yl]oxy-chroman-4-one
@<TRIPOS>ATOM
      1 C1          7.1763   -0.9692    3.8316 C.3       1 <0>        -0.1204
      2 C2          6.6985   -1.5242    2.5145 C.2       1 <0>        -0.1345
      3 C3          5.8073   -0.8693    1.8124 C.2       1 <0>        -0.1525
      4 C4          5.1596    0.3666    2.3815 C.3       1 <0>        -0.0273
      5 C5          5.3174    1.5087    1.4110 C.ar      1 <0>        -0.1989
      6 C6          4.3502    1.7318    0.4385 C.ar      1 <0>         0.2432
      7 C7          4.4819    2.7786   -0.4649 C.ar      1 <0>        -0.2699
      8 C8          5.5778    3.6209   -0.3998 C.ar      1 <0>         0.2529
      9 C9          6.5625    3.3944    0.5796 C.ar      1 <0>        -0.3805
     10 C10         6.4246    2.3342    1.4894 C.ar      1 <0>         0.3035
     11 O1          7.3701    2.1207    2.4379 O.3       1 <0>        -0.4946
     12 C11         7.7328    4.2776    0.6312 C.2       1 <0>         0.4246
     13 O2          8.7089    4.0050    1.2992 O.2       1 <0>        -0.4444
     14 C12         7.6601    5.5503   -0.1934 C.3       1 <0>         0.0568
     15 H1          7.1445    6.3610    0.3422 H         1 <0>         0.1048
     16 C13         6.9899    5.1895   -1.5271 C.3       1 <0>         0.1234
     17 H2          7.5458    4.4110   -2.0701 H         1 <0>         0.0937
     18 O3          5.6936    4.6485   -1.2735 O.3       1 <0>        -0.2966
     19 C14         6.8607    6.4274   -2.3767 C.ar      1 <0>        -0.1460
     20 C15         5.8309    7.3201   -2.1437 C.ar      1 <0>        -0.0438
     21 C16         5.7136    8.4585   -2.9175 C.ar      1 <0>        -0.1636
     22 C17         6.6239    8.7001   -3.9361 C.ar      1 <0>         0.1713
     23 C18         7.6530    7.8001   -4.1716 C.ar      1 <0>        -0.2142
     24 C19         7.7689    6.6658   -3.3917 C.ar      1 <0>        -0.0574
     25 O4          6.5074    9.8165   -4.7024 O.3       1 <0>        -0.5083
     26 O5          8.9761    6.0541   -0.4306 O.3       1 <0>        -0.5656
     27 O6          3.2690    0.9154    0.3671 O.3       1 <0>        -0.3038
     28 C20         2.3101    1.1966   -0.6544 C.3       1 <0>         0.2548
     29 H3          2.8543    1.2749   -1.6072 H         1 <0>         0.1281
     30 C21         1.2353    0.1063   -0.6597 C.3       1 <0>         0.1270
     31 H4          0.5384    0.2325   -1.5014 H         1 <0>         0.0967
     32 C22         0.5002    0.1184    0.6841 C.3       1 <0>         0.0983
     33 H5          1.1611   -0.1860    1.5091 H         1 <0>         0.0848
     34 C23        -0.0877    1.5132    0.9194 C.3       1 <0>         0.0640
     35 H6         -0.6346    1.5646    1.8724 H         1 <0>         0.0700
     36 C24         1.0381    2.5490    0.8637 C.3       1 <0>         0.0552
     37 H7          1.8087    2.3431    1.6212 H         1 <0>         0.0825
     38 O7          1.7002    2.4636   -0.3998 O.3       1 <0>        -0.3550
     39 C25         0.4507    3.9510    1.0382 C.3       1 <0>         0.0949
     40 O8          1.5108    4.9071    1.1015 O.3       1 <0>        -0.5864
     41 O9         -1.0528    1.8019   -0.0942 O.3       1 <0>        -0.5748
     42 O10        -0.5533   -0.8468    0.6613 O.3       1 <0>        -0.5870
     43 O11         1.8495   -1.1688   -0.8566 O.3       1 <0>        -0.5841
     44 C26         7.2460   -2.8326    2.0052 C.3       1 <0>        -0.1168
     45 H8          7.9174   -1.6534    4.2706 H         1 <0>         0.0552
     46 H9          6.3223   -0.8650    4.5170 H         1 <0>         0.0612
     47 H10         7.6380    0.0158    3.6686 H         1 <0>         0.0773
     48 H11         5.5317   -1.2215    0.8074 H         1 <0>         0.1079
     49 H12         4.0898    0.1748    2.5513 H         1 <0>         0.0776
     50 H13         5.6414    0.6269    3.3355 H         1 <0>         0.0838
     51 H14         3.7244    2.9381   -1.2180 H         1 <0>         0.1506
     52 H15         8.2489    2.7796    2.4966 H         1 <0>         0.4446
     53 H16         5.1199    7.1293   -1.3534 H         1 <0>         0.1348
     54 H17         4.9114    9.1575   -2.7325 H         1 <0>         0.1327
     55 H18         8.3630    7.9862   -4.9638 H         1 <0>         0.1325
     56 H19         8.5699    5.9648   -3.5746 H         1 <0>         0.1305
     57 H20         7.2297   10.0072   -5.5098 H         1 <0>         0.4374
     58 H21         9.1152    6.9756   -1.0149 H         1 <0>         0.4159
     59 H22        -0.2025    4.1837    0.1843 H         1 <0>         0.0556
     60 H23        -0.1345    3.9902    1.9688 H         1 <0>         0.0584
     61 H24         1.2811    5.9756    1.2262 H         1 <0>         0.4119
     62 H25        -1.5840    2.7651   -0.0895 H         1 <0>         0.4052
     63 H26        -1.1946   -0.9819    1.5447 H         1 <0>         0.4139
     64 H27         1.2311   -2.0780   -0.8893 H         1 <0>         0.4237
     65 H28         6.7820   -3.0722    1.0370 H         1 <0>         0.0589
     66 H29         7.0199   -3.6307    2.7276 H         1 <0>         0.0642
     67 H30         8.3356   -2.7499    1.8792 H         1 <0>         0.0619
@<TRIPOS>BOND
     1    1    2 1
     2    1   45 1
     3    1   46 1
     4    1   47 1
     5    2    3 2
     6    2   44 1
     7    3    4 1
     8    3   48 1
     9    4    5 1
    10    4   49 1
    11    4   50 1
    12    5   10 ar
    13    5    6 ar
    14    6    7 ar
    15    6   27 1
    16    7    8 ar
    17    7   51 1
    18    8   18 1
    19    8    9 ar
    20    9   10 ar
    21    9   12 1
    22   10   11 1
    23   11   52 1
    24   12   13 2
    25   12   14 1
    26   14   15 1
    27   14   16 1
    28   14   26 1
    29   16   17 1
    30   16   18 1
    31   16   19 1
    32   19   24 ar
    33   19   20 ar
    34   20   21 ar
    35   20   53 1
    36   21   22 ar
    37   21   54 1
    38   22   23 ar
    39   22   25 1
    40   23   24 ar
    41   23   55 1
    42   24   56 1
    43   25   57 1
    44   26   58 1
    45   27   28 1
    46   28   29 1
    47   28   38 1
    48   28   30 1
    49   30   31 1
    50   30   32 1
    51   30   43 1
    52   32   33 1
    53   32   34 1
    54   32   42 1
    55   34   35 1
    56   34   36 1
    57   34   41 1
    58   36   37 1
    59   36   38 1
    60   36   39 1
    61   39   40 1
    62   39   59 1
    63   39   60 1
    64   40   61 1
    65   41   62 1
    66   42   63 1
    67   43   64 1
    68   44   65 1
    69   44   66 1
    70   44   67 1
@<TRIPOS>MOLECULE
ZINC40687638
   44    46     0     0     0
SMALL
USER_CHARGES

@<TRIPOS>ATOM
      1 C1          1.2620    1.6380   -1.0542 C.3       1 <0>        -0.1304
      2 C2          1.1263    0.1402   -0.9590 C.ar      1 <0>        -0.0188
      3 C3          1.1788   -0.6327   -2.1039 C.ar      1 <0>        -0.1387
      4 C4          1.0543   -2.0067   -2.0166 C.ar      1 <0>        -0.0098
      5 C5          0.8779   -2.6078   -0.7844 C.ar      1 <0>        -0.6927
      6 C6          0.8263   -1.8350    0.3606 C.ar      1 <0>        -0.0242
      7 C7          0.9551   -0.4614    0.2738 C.ar      1 <0>        -0.1414
      8 S1          0.7181   -4.3590   -0.6732 S.o2      1 <0>         2.6936
      9 O1          0.0169   -4.6271    0.5333 O.2       1 <0>        -0.9377
     10 O2          0.2536   -4.8056   -1.9397 O.2       1 <0>        -0.9297
     11 N1          2.2420   -4.9786   -0.4827 N.pl3     1 <0>        -0.8934
     12 N2          3.0171   -4.6044    0.6228 N.pl3     1 <0>        -0.4882
     13 C8          3.5434   -5.5776    1.4637 C.ar      1 <0>         0.4200
     14 C9          4.3127   -5.2165    2.5720 C.ar      1 <0>         0.0502
     15 C10         4.8167   -6.2336    3.3838 C.ar      1 <0>         0.3459
     16 N3          4.5471   -7.4997    3.0734 N.ar      1 <0>        -0.5609
     17 C11         3.8168   -7.7974    2.0182 C.ar      1 <0>         0.3353
     18 N4          3.3177   -6.8676    1.2286 N.ar      1 <0>        -0.5338
     19 N5          5.5892   -5.9291    4.4998 N.pl3     1 <0>        -0.6274
     20 C12         6.1854   -6.9515    5.2340 C.ar      1 <0>         0.3038
     21 C13         6.5767   -8.1403    4.6183 C.ar      1 <0>        -0.1446
     22 C14         7.1637   -9.1281    5.3809 C.ar      1 <0>         0.1485
     23 N6          7.3560   -8.9590    6.6757 N.ar      1 <0>        -0.4749
     24 C15         6.9998   -7.8491    7.2949 C.ar      1 <0>         0.1586
     25 C16         6.4119   -6.8110    6.6030 C.ar      1 <0>        -0.1829
     26 N7          4.5723   -3.8673    2.8612 N.pl3     1 <0>        -0.8689
     27 H1          2.3139    1.9132   -0.9775 H         1 <0>         0.0826
     28 H2          0.8661    1.9786   -2.0109 H         1 <0>         0.0773
     29 H3          0.7041    2.1057   -0.2429 H         1 <0>         0.0761
     30 H4          1.3166   -0.1631   -3.0666 H         1 <0>         0.1380
     31 H5          1.0946   -2.6104   -2.9112 H         1 <0>         0.1444
     32 H6          0.6882   -2.3046    1.3233 H         1 <0>         0.1397
     33 H7          0.9185    0.1421    1.1687 H         1 <0>         0.1359
     34 H8          2.5979   -5.6006   -1.1364 H         1 <0>         0.4320
     35 H9          3.1863   -3.6661    0.8012 H         1 <0>         0.4307
     36 H10         3.6178   -8.8353    1.7954 H         1 <0>         0.2109
     37 H11         5.7126   -5.0048    4.7667 H         1 <0>         0.4316
     38 H12         6.4219   -8.2852    3.5594 H         1 <0>         0.1929
     39 H13         7.4696  -10.0520    4.9126 H         1 <0>         0.2082
     40 H14         7.1750   -7.7509    8.3560 H         1 <0>         0.2083
     41 H15         6.1270   -5.9037    7.1150 H         1 <0>         0.1808
     42 H16         4.2156   -3.1711    2.2877 H         1 <0>         0.4040
     43 H17         5.1083   -3.6315    3.6345 H         1 <0>         0.4000
     44 H18         7.7710   -9.6712    7.1871 H         1 <0>         0.4494
@<TRIPOS>BOND
     1    1    2 1
     2    1   27 1
     3    1   28 1
     4    1   29 1
     5    2    7 ar
     6    2    3 ar
     7    3    4 ar
     8    3   30 1
     9    4    5 ar
    10    4   31 1
    11    5    6 ar
    12    5    8 1
    13    6    7 ar
    14    6   32 1
    15    7   33 1
    16    8    9 2
    17    8   10 2
    18    8   11 1
    19   11   12 1
    20   11   34 1
    21   12   13 1
    22   12   35 1
    23   13   18 ar
    24   13   14 ar
    25   14   15 ar
    26   14   26 1
    27   15   16 ar
    28   15   19 1
    29   16   17 ar
    30   17   18 ar
    31   17   36 1
    32   19   20 1
    33   19   37 1
    34   20   25 ar
    35   20   21 ar
    36   21   22 ar
    37   21   38 1
    38   22   23 ar
    39   22   39 1
    40   23   24 ar
    41   23   44 1
    42   24   25 ar
    43   24   40 1
    44   25   41 1
    45   26   42 1
    46   26   43 1
@<TRIPOS>MOLECULE
ZINC08964843
   48    51     0     0     0
SMALL
USER_CHARGES

@<TRIPOS>ATOM
      1 C1         -0.0166    1.3749    0.0096 C.ar      1 <0>        -0.1342
      2 C2          1.1693    2.0891    0.0021 C.ar      1 <0>        -0.0880
      3 C3          2.3833    1.4281   -0.0134 C.ar      1 <0>        -0.1525
      4 C4          2.4203    0.0436   -0.0212 C.ar      1 <0>         0.1462
      5 C5          1.2222   -0.6836   -0.0132 C.ar      1 <0>        -0.0792
      6 C6          0.0021   -0.0041    0.0020 C.ar      1 <0>        -0.0771
      7 C7          1.2497   -2.1571   -0.0218 C.2       1 <0>         0.0861
      8 N1          2.3859   -2.7851   -0.0368 N.2       1 <0>        -0.1692
      9 N2          2.4121   -4.1859   -0.0450 N.pl3     1 <0>        -0.5477
     10 C8          3.6199   -4.8534   -0.0610 C.2       1 <0>         0.5496
     11 N3          4.7982   -4.2804   -0.0640 N.2       1 <0>        -0.4661
     12 C9          5.7625   -5.2335   -0.0811 C.ar      1 <0>        -0.0798
     13 C10         7.1672   -5.2135   -0.0915 C.ar      1 <0>         0.4989
     14 N4          7.8173   -6.3725   -0.1084 N.ar      1 <0>        -0.5851
     15 C11         7.1662   -7.5214   -0.1153 C.ar      1 <0>         0.3538
     16 N5          5.8513   -7.5881   -0.1065 N.ar      1 <0>        -0.5478
     17 C12         5.1170   -6.4809   -0.0891 C.ar      1 <0>         0.3141
     18 N6          3.7678   -6.2140   -0.0702 N.pl3     1 <0>        -0.4828
     19 C13         2.6878   -7.2039   -0.0644 C.3       1 <0>         0.3112
     20 H1          3.0716   -8.1833   -0.3502 H         1 <0>         0.1369
     21 C14         2.0286   -7.2724    1.3362 C.3       1 <0>         0.0760
     22 H2          1.9665   -6.2833    1.7899 H         1 <0>         0.0895
     23 C15         0.6181   -7.8108    0.9721 C.3       1 <0>         0.0455
     24 H3         -0.1227   -7.4818    1.7008 H         1 <0>         0.0967
     25 C16         0.3633   -7.1581   -0.4036 C.3       1 <0>         0.0489
     26 H4         -0.2515   -6.2663   -0.2815 H         1 <0>         0.1026
     27 O1          1.6369   -6.8005   -0.9566 O.3       1 <0>        -0.3540
     28 C17        -0.3428   -8.1526   -1.3273 C.3       1 <0>         0.0662
     29 O2         -0.6789   -7.5055   -2.5562 O.3       1 <0>        -0.5627
     30 O3          0.6288   -9.2361    0.8691 O.3       1 <0>        -0.5324
     31 O4          2.7244   -8.1839    2.1889 O.3       1 <0>        -0.5205
     32 N7          7.8588   -4.0131   -0.0848 N.pl3     1 <0>        -0.8194
     33 O5          3.6127   -0.6067   -0.0369 O.3       1 <0>        -0.4711
     34 H5         -0.9603    1.8998    0.0259 H         1 <0>         0.1297
     35 H6          1.1459    3.1688    0.0081 H         1 <0>         0.1289
     36 H7          3.3042    1.9922   -0.0199 H         1 <0>         0.1325
     37 H8         -0.9253   -0.5576    0.0082 H         1 <0>         0.1308
     38 H9          0.3247   -2.7145   -0.0156 H         1 <0>         0.1181
     39 H10         1.5813   -4.6865   -0.0395 H         1 <0>         0.3930
     40 H11         7.7334   -8.4404   -0.1290 H         1 <0>         0.2052
     41 H12         0.3197   -8.9943   -1.5292 H         1 <0>         0.0671
     42 H13        -1.2519   -8.5132   -0.8460 H         1 <0>         0.0614
     43 H14        -1.1303   -8.0779   -3.1915 H         1 <0>         0.3863
     44 H15        -0.2293   -9.6205    0.6433 H         1 <0>         0.3846
     45 H16         2.3468   -8.2590    3.0759 H         1 <0>         0.3895
     46 H17         7.3731   -3.1735   -0.0728 H         1 <0>         0.4192
     47 H18         8.8288   -4.0122   -0.0921 H         1 <0>         0.4093
     48 H19         3.9670   -0.7997    0.8419 H         1 <0>         0.3919
@<TRIPOS>BOND
     1    1    6 ar
     2    1    2 ar
     3    1   34 1
     4    2    3 ar
     5    2   35 1
     6    3    4 ar
     7    3   36 1
     8    4    5 ar
     9    4   33 1
    10    5    6 ar
    11    5    7 1
    12    6   37 1
    13    7    8 2
    14    7   38 1
    15    8    9 1
    16    9   10 1
    17    9   39 1
    18   10   18 1
    19   10   11 2
    20   11   12 1
    21   12   17 ar
    22   12   13 ar
    23   13   14 ar
    24   13   32 1
    25   14   15 ar
    26   15   16 ar
    27   15   40 1
    28   16   17 ar
    29   17   18 1
    30   18   19 1
    31   19   20 1
    32   19   27 1
    33   19   21 1
    34   21   22 1
    35   21   23 1
    36   21   31 1
    37   23   24 1
    38   23   25 1
    39   23   30 1
    40   25   26 1
    41   25   27 1
    42   25   28 1
    43   28   29 1
    44   28   41 1
    45   28   42 1
    46   29   43 1
    47   30   44 1
    48   31   45 1
    49   32   46 1
    50   32   47 1
    51   33   48 1
@<TRIPOS>MOLECULE
ZINC64103582
   58    61     0     0     0
SMALL
USER_CHARGES

@<TRIPOS>ATOM
      1 C1         -0.1333    1.5089   -0.1813 C.3       1 <0>        -0.1253
      2 C2          0.0021   -0.0041    0.0020 C.3       1 <0>        -0.0461
      3 C3          0.7970   -0.2942    1.2767 C.3       1 <0>        -0.1440
      4 C4         -1.3892   -0.6307    0.1148 C.3       1 <0>        -0.1492
      5 C5          0.7338   -0.6002   -1.2022 C.3       1 <0>         0.1340
      6 H1          0.6853   -1.6889   -1.1767 H         1 <0>         0.0693
      7 C6          0.1493   -0.0756   -2.4880 C.2       1 <0>        -0.3056
      8 C7          1.1069    0.5790   -3.1237 C.2       1 <0>         0.1456
      9 C8          0.9142    1.2627   -4.4613 C.3       1 <0>        -0.0862
     10 C9         -0.3379    0.6952   -5.1375 C.3       1 <0>         0.0971
     11 N1         -1.4302    0.6361   -4.1538 N.am      1 <0>        -0.5773
     12 C10        -1.2616   -0.2526   -2.9898 C.3       1 <0>         0.1923
     13 C11        -2.5488    1.3712   -4.3114 C.2       1 <0>         0.5026
     14 O1         -3.4372    1.3075   -3.4883 O.2       1 <0>        -0.5031
     15 C12        -2.6956    2.2723   -5.5104 C.3       1 <0>         0.0059
     16 H2         -1.7431    2.7605   -5.7168 H         1 <0>         0.1737
     17 C13        -3.1164    1.4414   -6.7243 C.3       1 <0>        -0.0991
     18 C14        -3.1441    2.3194   -7.9488 C.2       1 <0>        -0.0275
     19 C15        -2.1561    2.4768   -8.8591 C.ar      1 <0>        -0.1086
     20 C16        -0.8112    1.9007   -8.9765 C.ar      1 <0>        -0.0521
     21 C17        -0.0334    2.2585  -10.0234 C.ar      1 <0>        -0.1130
     22 C18        -0.4783    3.1639  -10.9966 C.ar      1 <0>         0.0635
     23 C19        -1.7008    3.7349  -10.9569 C.ar      1 <0>        -0.2034
     24 C20        -2.6024    3.4301   -9.9000 C.ar      1 <0>         0.3352
     25 N2         -3.8189    3.8459   -9.6433 N.pl3     1 <0>        -0.5694
     26 C21        -4.2846    3.1979   -8.4121 C.3       1 <0>         0.0624
     27 N3         -3.7183    3.2903   -5.2356 N.4       1 <0>        -0.6258
     28 N4          2.2867    0.5487   -2.4013 N.pl3     1 <0>        -0.5874
     29 N5          2.1393   -0.1451   -1.2313 N.3       1 <0>        -0.4218
     30 H3          0.8578    1.9553   -0.2617 H         1 <0>         0.0590
     31 H4         -0.6997    1.7156   -1.0894 H         1 <0>         0.0422
     32 H5         -0.6547    1.9336    0.6766 H         1 <0>         0.0493
     33 H6          0.2757    0.1305    2.1346 H         1 <0>         0.0557
     34 H7          0.8935   -1.3720    1.4073 H         1 <0>         0.0524
     35 H8          1.7881    0.1522    1.1963 H         1 <0>         0.0680
     36 H9         -2.0121   -0.2830   -0.7092 H         1 <0>         0.0547
     37 H10        -1.3032   -1.7164    0.0723 H         1 <0>         0.0574
     38 H11        -1.8433   -0.3390    1.0618 H         1 <0>         0.0632
     39 H12         0.7917    2.3349   -4.3083 H         1 <0>         0.0892
     40 H13         1.7839    1.0802   -5.0925 H         1 <0>         0.1033
     41 H14        -0.6285    1.3404   -5.9667 H         1 <0>         0.0814
     42 H15        -0.1283   -0.3074   -5.5103 H         1 <0>         0.1045
     43 H16        -1.4213   -1.2886   -3.2886 H         1 <0>         0.0878
     44 H17        -1.9700    0.0219   -2.2082 H         1 <0>         0.1159
     45 H18        -2.4034    0.6307   -6.8746 H         1 <0>         0.1556
     46 H19        -4.1091    1.0251   -6.5532 H         1 <0>         0.1465
     47 H20        -0.4480    1.2018   -8.2376 H         1 <0>         0.1648
     48 H21         0.9565    1.8359  -10.1118 H         1 <0>         0.1686
     49 H22         0.1844    3.4153  -11.8115 H         1 <0>         0.1723
     50 H23        -1.9957    4.4271  -11.7316 H         1 <0>         0.1710
     51 H24        -5.1674    2.5915   -8.6150 H         1 <0>         0.1876
     52 H25        -4.5104    3.9501   -7.6564 H         1 <0>         0.1513
     53 H26        -3.4408    3.8383   -4.4350 H         1 <0>         0.4549
     54 H27        -3.8166    3.8936   -6.0383 H         1 <0>         0.4260
     55 H28         3.1142    0.9656   -2.6884 H         1 <0>         0.4293
     56 H29         2.7740   -0.9285   -1.1908 H         1 <0>         0.3360
     57 H30        -4.3275    4.4739  -10.1798 H         1 <0>         0.4654
     58 H31        -4.5999    2.8384   -5.0445 H         1 <0>         0.4499
@<TRIPOS>BOND
     1    1    2 1
     2    1   30 1
     3    1   31 1
     4    1   32 1
     5    2    3 1
     6    2    4 1
     7    2    5 1
     8    3   33 1
     9    3   34 1
    10    3   35 1
    11    4   36 1
    12    4   37 1
    13    4   38 1
    14    5    6 1
    15    5   29 1
    16    5    7 1
    17    7   12 1
    18    7    8 2
    19    8    9 1
    20    8   28 1
    21    9   10 1
    22    9   39 1
    23    9   40 1
    24   10   11 1
    25   10   41 1
    26   10   42 1
    27   11   12 1
    28   11   13 am
    29   12   43 1
    30   12   44 1
    31   13   14 2
    32   13   15 1
    33   15   16 1
    34   15   17 1
    35   15   27 1
    36   17   18 1
    37   17   45 1
    38   17   46 1
    39   18   26 1
    40   18   19 2
    41   19   24 ar
    42   19   20 ar
    43   20   21 ar
    44   20   47 1
    45   21   22 ar
    46   21   48 1
    47   22   23 ar
    48   22   49 1
    49   23   24 ar
    50   23   50 1
    51   24   25 2
    52   25   26 1
    53   25   57 1
    54   26   51 1
    55   26   52 1
    56   27   53 1
    57   27   54 1
    58   27   58 1
    59   28   29 1
    60   28   55 1
    61   29   56 1
@<TRIPOS>MOLECULE
ZINC10059429
   56    59     0     0     0
SMALL
USER_CHARGES
2-[2-[[6-(2-acetylaminophenyl)-5-oxo-4H-1,2,4-triazin-3-yl]sulfanyl]acetyl]amino-4,5,6,7-tetrahydrobenzothiophene-3-carboxamide
@<TRIPOS>ATOM
      1 C1          0.4410   -3.1743    3.8814 C.3       1 <0>        -0.1716
      2 C2         -0.4612   -3.0270    2.6833 C.2       1 <0>         0.5146
      3 O1         -1.0437   -3.9943    2.2403 O.2       1 <0>        -0.5162
      4 N1         -0.6210   -1.8205    2.1042 N.am      1 <0>        -0.6738
      5 C3         -1.5397   -1.6612    1.0633 C.ar      1 <0>         0.1866
      6 C4         -2.7109   -2.4039    1.0485 C.ar      1 <0>        -0.1230
      7 C5         -3.6180   -2.2454    0.0182 C.ar      1 <0>        -0.0809
      8 C6         -3.3655   -1.3468   -1.0041 C.ar      1 <0>        -0.1351
      9 C7         -2.2074   -0.5967   -1.0009 C.ar      1 <0>        -0.0620
     10 C8         -1.2814   -0.7511    0.0302 C.ar      1 <0>        -0.0632
     11 C9         -0.0352    0.0469    0.0362 C.2       1 <0>         0.0605
     12 C10         1.2707   -0.6024   -0.1217 C.2       1 <0>         0.5057
     13 O2          1.3634   -1.8095   -0.2621 O.2       1 <0>        -0.4713
     14 N2          2.3692    0.1892   -0.1062 N.am      1 <0>        -0.6098
     15 H1          3.2558   -0.1914   -0.2064 H         1 <0>         0.4291
     16 C11         2.2020    1.5327    0.0539 C.2       1 <0>         0.2913
     17 N3          1.0002    2.0622    0.1917 N.2       1 <0>        -0.3428
     18 N4         -0.0751    1.3605    0.1846 N.2       1 <0>        -0.1635
     19 S1          3.6167    2.5829    0.0767 S.3       1 <0>         0.1145
     20 C12         2.8129    4.1881    0.3079 C.3       1 <0>        -0.1493
     21 C13         3.8594    5.2712    0.3587 C.2       1 <0>         0.5294
     22 O3          5.0331    4.9861    0.2494 O.2       1 <0>        -0.4839
     23 N5          3.4909    6.5569    0.5256 N.am      1 <0>        -0.6102
     24 C14         4.4539    7.5536    0.5724 C.2       1 <0>         0.0633
     25 C15         4.2732    8.9203    0.7302 C.2       1 <0>        -0.2171
     26 C16         5.4609    9.7570    0.7491 C.2       1 <0>        -0.0674
     27 C17         6.6307    9.0987    0.5983 C.2       1 <0>        -0.2017
     28 S2          6.1742    7.3955    0.4405 S.3       1 <0>         0.2334
     29 C18         8.0049    9.6934    0.5715 C.3       1 <0>        -0.0375
     30 C19         7.8719   11.2095    0.3664 C.3       1 <0>        -0.1145
     31 C20         6.8197   11.7486    1.3397 C.3       1 <0>        -0.1201
     32 C21         5.4287   11.2709    0.9191 C.3       1 <0>        -0.0616
     33 C22         2.9336    9.4983    0.8764 C.2       1 <0>         0.5825
     34 O4          2.4436    9.6265    1.9831 O.2       1 <0>        -0.5311
     35 N6          2.2448    9.8875   -0.2147 N.am      1 <0>        -0.8470
     36 H2         -0.1361   -3.0163    4.7924 H         1 <0>         0.1009
     37 H3          0.8700   -4.1762    3.8922 H         1 <0>         0.1005
     38 H4          1.2417   -2.4368    3.8260 H         1 <0>         0.0785
     39 H5         -0.0982   -1.0628    2.4099 H         1 <0>         0.4044
     40 H6         -2.9143   -3.1064    1.8431 H         1 <0>         0.1402
     41 H7         -4.5290   -2.8254    0.0107 H         1 <0>         0.1319
     42 H8         -4.0802   -1.2290   -1.8052 H         1 <0>         0.1317
     43 H9         -2.0166    0.1064   -1.7981 H         1 <0>         0.1290
     44 H10         2.1339    4.3775   -0.5236 H         1 <0>         0.1454
     45 H11         2.2508    4.1818    1.2417 H         1 <0>         0.1457
     46 H12         2.5522    6.7850    0.6130 H         1 <0>         0.4243
     47 H13         8.5099    9.4937    1.5166 H         1 <0>         0.0842
     48 H14         8.5767    9.2600   -0.2490 H         1 <0>         0.0825
     49 H15         8.8305   11.6901    0.5616 H         1 <0>         0.0749
     50 H16         7.5629   11.4137   -0.6588 H         1 <0>         0.0686
     51 H17         7.0378   11.3880    2.3450 H         1 <0>         0.0680
     52 H18         6.8445   12.8383    1.3326 H         1 <0>         0.0713
     53 H19         4.7030   11.5370    1.6877 H         1 <0>         0.0760
     54 H20         5.1507   11.7408   -0.0243 H         1 <0>         0.0776
     55 H21         2.6353    9.7853   -1.0967 H         1 <0>         0.4038
     56 H22         1.3586   10.2699   -0.1180 H         1 <0>         0.4046
@<TRIPOS>BOND
     1    1    2 1
     2    1   36 1
     3    1   37 1
     4    1   38 1
     5    2    3 2
     6    2    4 am
     7    4    5 1
     8    4   39 1
     9    5   10 ar
    10    5    6 ar
    11    6    7 ar
    12    6   40 1
    13    7    8 ar
    14    7   41 1
    15    8    9 ar
    16    8   42 1
    17    9   10 ar
    18    9   43 1
    19   10   11 1
    20   11   18 2
    21   11   12 1
    22   12   13 2
    23   12   14 am
    24   14   15 1
    25   14   16 1
    26   16   17 2
    27   16   19 1
    28   17   18 1
    29   19   20 1
    30   20   21 1
    31   20   44 1
    32   20   45 1
    33   21   22 2
    34   21   23 am
    35   23   24 1
    36   23   46 1
    37   24   28 1
    38   24   25 2
    39   25   26 1
    40   25   33 1
    41   26   32 1
    42   26   27 2
    43   27   28 1
    44   27   29 1
    45   29   30 1
    46   29   47 1
    47   29   48 1
    48   30   31 1
    49   30   49 1
    50   30   50 1
    51   31   32 1
    52   31   51 1
    53   31   52 1
    54   32   53 1
    55   32   54 1
    56   33   34 2
    57   33   35 am
    58   35   55 1
    59   35   56 1
@<TRIPOS>MOLECULE
ZINC05398924
   43    45     0     0     0
SMALL
USER_CHARGES
3-amino-1-[[(2R)-1-(6-chloro-3-hydroxy-quinoxalin-2-yl)-2-hydroxy-2-(4-nitrophenyl)ethylidene]amino]thiourea
@<TRIPOS>ATOM
      1 C1          4.3568   -1.5601    1.4308 C.ar      1 <0>        -0.0741
      2 C2          4.6248   -2.1930    2.6302 C.ar      1 <0>        -0.0578
      3 C3          5.9222   -2.2574    3.1029 C.ar      1 <0>        -0.0432
      4 C4          6.9523   -1.6936    2.3737 C.ar      1 <0>        -0.0514
      5 C5          6.6850   -1.0653    1.1717 C.ar      1 <0>        -0.1142
      6 C6          5.3876   -1.0009    0.6990 C.ar      1 <0>        -0.0262
      7 C7          5.0962   -0.3155   -0.6111 C.3       1 <0>         0.1689
      8 H1          6.0009   -0.2604   -1.2344 H         1 <0>         0.0699
      9 C8          4.5424    1.0607   -0.3458 C.2       1 <0>         0.1286
     10 N1          5.3358    2.0895   -0.3365 N.2       1 <0>        -0.1502
     11 N2          6.7209    1.9069   -0.4407 N.pl3     1 <0>        -0.5560
     12 C9          7.5358    2.9756   -0.5423 C.2       1 <0>         0.6057
     13 S1          9.2284    2.7524   -0.6697 S.2       1 <0>        -0.6763
     14 N3          7.0181    4.2200   -0.5436 N.pl3     1 <0>        -0.5213
     15 N4          5.6676    4.3980   -0.4420 N.3       1 <0>        -0.5241
     16 C10         3.1031    1.2393   -0.0973 C.ar      1 <0>         0.0613
     17 C11         2.6024    2.5158    0.2611 C.ar      1 <0>         0.4017
     18 N5          1.3177    2.6872    0.4861 N.ar      1 <0>        -0.5601
     19 C12         0.4762    1.6492    0.3754 C.ar      1 <0>         0.1856
     20 C13        -0.8985    1.8096    0.6099 C.ar      1 <0>        -0.1206
     21 C14        -1.7349    0.7400    0.4905 C.ar      1 <0>         0.0058
     22 C15        -1.2455   -0.5157    0.1324 C.ar      1 <0>        -0.1737
     23 C16         0.0820   -0.7091   -0.0972 C.ar      1 <0>        -0.0218
     24 C17         0.9747    0.3716    0.0166 C.ar      1 <0>        -0.0369
     25 N6          2.2824    0.2072   -0.2096 N.ar      1 <0>        -0.3677
     26 Cl1        -3.4340    0.9454    0.7813 Cl        1 <0>        -0.0858
     27 O1          3.4518    3.5653    0.3731 O.3       1 <0>        -0.6074
     28 O2          4.1390   -1.0806   -1.3463 O.3       1 <0>        -0.5486
     29 N7          6.2084   -2.9298    4.3902 N.pl3     1 <0>         0.0308
     30 O3          7.3515   -2.9862    4.8069 O.2       1 <0>        -0.1627
     31 O4          5.3007   -3.4266    5.0327 O.3       1 <0>        -0.1619
     32 H2          3.3426   -1.5060    1.0636 H         1 <0>         0.1660
     33 H3          3.8200   -2.6333    3.2001 H         1 <0>         0.1545
     34 H4          7.9659   -1.7436    2.7432 H         1 <0>         0.1568
     35 H5          7.4898   -0.6244    0.6022 H         1 <0>         0.1425
     36 H6          7.1434    0.8913   -0.4396 H         1 <0>         0.4178
     37 H7          7.6831    5.0923   -0.6265 H         1 <0>         0.4429
     38 H8          5.4371    5.4734   -0.4604 H         1 <0>         0.3429
     39 H9          5.1677    3.9013   -1.2867 H         1 <0>         0.3535
     40 H10        -1.2922    2.7774    0.8837 H         1 <0>         0.1338
     41 H11        -1.9286   -1.3471    0.0401 H         1 <0>         0.1271
     42 H12         0.4478   -1.6879   -0.3702 H         1 <0>         0.1316
     43 H13         3.8008   -0.7352   -2.3344 H         1 <0>         0.4141
@<TRIPOS>BOND
     1    1    6 ar
     2    1    2 ar
     3    1   32 1
     4    2    3 ar
     5    2   33 1
     6    3    4 ar
     7    3   29 1
     8    4    5 ar
     9    4   34 1
    10    5    6 ar
    11    5   35 1
    12    6    7 1
    13    7    8 1
    14    7    9 1
    15    7   28 1
    16    9   10 2
    17    9   16 1
    18   10   11 1
    19   11   12 1
    20   11   36 1
    21   12   13 2
    22   12   14 1
    23   14   15 1
    24   14   37 1
    25   15   38 1
    26   15   39 1
    27   16   25 ar
    28   16   17 ar
    29   17   18 ar
    30   17   27 1
    31   18   19 ar
    32   19   24 ar
    33   19   20 ar
    34   20   21 ar
    35   20   40 1
    36   21   22 ar
    37   21   26 1
    38   22   23 ar
    39   22   41 1
    40   23   24 ar
    41   23   42 1
    42   24   25 ar
    43   28   43 1
    44   29   30 2
    45   29   31 1
@<TRIPOS>MOLECULE
ZINC39011879
   58    61     0     0     0
SMALL
USER_CHARGES

@<TRIPOS>ATOM
      1 C1         -6.1936    1.0862   -1.8186 C.3       1 <0>        -0.1197
      2 C2         -5.3143   -0.0389   -1.3368 C.ar      1 <0>        -0.0727
      3 C3         -4.3161   -0.5329   -2.1571 C.ar      1 <0>        -0.1218
      4 C4         -3.5075   -1.5628   -1.7209 C.ar      1 <0>        -0.0823
      5 C5         -3.6982   -2.1050   -0.4515 C.ar      1 <0>        -0.0394
      6 C6         -4.7054   -1.6034    0.3707 C.ar      1 <0>        -0.0956
      7 C7         -5.5046   -0.5698   -0.0738 C.ar      1 <0>        -0.1214
      8 C8         -2.8324   -3.2127    0.0229 C.2       1 <0>         0.0097
      9 C9         -2.9370   -3.8085    1.2264 C.2       1 <0>        -0.1312
     10 C10        -1.8384   -4.8564    1.2102 C.3       1 <0>        -0.0228
     11 H1         -1.1113   -4.6640    1.9992 H         1 <0>         0.1724
     12 N1         -1.2250   -4.6791   -0.1164 N.2       1 <0>        -0.1616
     13 N2         -1.8260   -3.7731   -0.6979 N.2       1 <0>        -0.1413
     14 C11        -2.4290   -6.2605    1.3530 C.3       1 <0>         0.2223
     15 H2         -3.0579   -6.3203    2.2413 H         1 <0>         0.1356
     16 N3         -3.2069   -6.6235    0.1395 N.3       1 <0>        -0.5083
     17 N4         -3.1915   -8.0946    0.1627 N.3       1 <0>        -0.4853
     18 C12        -1.8369   -8.4428    0.6487 C.3       1 <0>         0.1528
     19 H3         -1.1765   -8.6407   -0.1956 H         1 <0>         0.1310
     20 N5         -1.3496   -7.2732    1.4130 N.3       1 <0>        -0.3563
     21 N6         -0.1168   -6.7552    0.8422 N.3       1 <0>        -0.6596
     22 S1         -1.9188   -9.8984    1.7281 S.3       1 <0>        -0.0954
     23 C13        -3.0454   -9.3959    3.0580 C.3       1 <0>        -0.1403
     24 C14        -3.2034  -10.5299    4.0378 C.2       1 <0>         0.5333
     25 O1         -2.6140  -11.5744    3.8568 O.2       1 <0>        -0.4920
     26 N7         -3.9997  -10.3835    5.1153 N.am      1 <0>        -0.6705
     27 C15        -4.2302  -11.4690    5.9676 C.ar      1 <0>         0.1323
     28 C16        -3.9869  -11.3484    7.3295 C.ar      1 <0>        -0.0900
     29 C17        -4.2154  -12.4217    8.1680 C.ar      1 <0>        -0.1155
     30 C18        -4.6860  -13.6156    7.6529 C.ar      1 <0>        -0.1127
     31 C19        -4.9288  -13.7391    6.2971 C.ar      1 <0>        -0.1145
     32 C20        -4.7082  -12.6676    5.4541 C.ar      1 <0>        -0.0689
     33 C21        -4.9800  -12.8008    3.9778 C.3       1 <0>        -0.1107
     34 C22        -3.4736  -10.0478    7.8917 C.3       1 <0>        -0.1154
     35 H4         -5.7432    2.0410   -1.5475 H         1 <0>         0.0738
     36 H5         -6.2973    1.0279   -2.9021 H         1 <0>         0.0692
     37 H6         -7.1765    1.0034   -1.3546 H         1 <0>         0.0685
     38 H7         -4.1694   -0.1121   -3.1409 H         1 <0>         0.1277
     39 H8         -2.7287   -1.9480   -2.3624 H         1 <0>         0.1336
     40 H9         -4.8575   -2.0200    1.3555 H         1 <0>         0.1232
     41 H10        -6.2826   -0.1772    0.5643 H         1 <0>         0.1272
     42 H11        -3.6384   -3.5912    2.0184 H         1 <0>         0.1760
     43 H12        -2.7619   -6.2703   -0.6943 H         1 <0>         0.3611
     44 H13        -3.9017   -8.4539    0.7830 H         1 <0>         0.3621
     45 H14         0.6185   -7.4450    0.8831 H         1 <0>         0.3615
     46 H15        -0.2622   -6.4374   -0.1043 H         1 <0>         0.3420
     47 H16        -2.6359   -8.5262    3.5718 H         1 <0>         0.1206
     48 H17        -4.0176   -9.1434    2.6346 H         1 <0>         0.1087
     49 H18        -4.4130   -9.5256    5.2999 H         1 <0>         0.4090
     50 H19        -4.0261  -12.3286    9.2272 H         1 <0>         0.1267
     51 H20        -4.8639  -14.4535    8.3107 H         1 <0>         0.1259
     52 H21        -5.2960  -14.6730    5.8978 H         1 <0>         0.1266
     53 H22        -4.1224  -13.2652    3.4910 H         1 <0>         0.0840
     54 H23        -5.8638  -13.4203    3.8255 H         1 <0>         0.0655
     55 H24        -5.1502  -11.8132    3.5492 H         1 <0>         0.0550
     56 H25        -4.3155   -9.4273    8.1989 H         1 <0>         0.0720
     57 H26        -2.8379  -10.2503    8.7537 H         1 <0>         0.0716
     58 H27        -2.8962   -9.5251    7.1292 H         1 <0>         0.0639
@<TRIPOS>BOND
     1    1    2 1
     2    1   35 1
     3    1   36 1
     4    1   37 1
     5    2    7 ar
     6    2    3 ar
     7    3    4 ar
     8    3   38 1
     9    4    5 ar
    10    4   39 1
    11    5    6 ar
    12    5    8 1
    13    6    7 ar
    14    6   40 1
    15    7   41 1
    16    8   13 1
    17    8    9 2
    18    9   10 1
    19    9   42 1
    20   10   11 1
    21   10   12 1
    22   10   14 1
    23   12   13 2
    24   14   15 1
    25   14   20 1
    26   14   16 1
    27   16   17 1
    28   16   43 1
    29   17   18 1
    30   17   44 1
    31   18   19 1
    32   18   20 1
    33   18   22 1
    34   20   21 1
    35   21   45 1
    36   21   46 1
    37   22   23 1
    38   23   24 1
    39   23   47 1
    40   23   48 1
    41   24   25 2
    42   24   26 am
    43   26   27 1
    44   26   49 1
    45   27   32 ar
    46   27   28 ar
    47   28   29 ar
    48   28   34 1
    49   29   30 ar
    50   29   50 1
    51   30   31 ar
    52   30   51 1
    53   31   32 ar
    54   31   52 1
    55   32   33 1
    56   33   53 1
    57   33   54 1
    58   33   55 1
    59   34   56 1
    60   34   57 1
    61   34   58 1
@<TRIPOS>MOLECULE
ZINC43742929
   77    80     0     0     0
SMALL
USER_CHARGES

@<TRIPOS>ATOM
      1 C1         -3.6735    3.8331   -0.8240 C.3       1 <0>        -0.1595
      2 C2         -2.7888    2.5673   -0.7962 C.3       1 <0>        -0.0312
      3 C3         -2.0605    2.5421   -2.1342 C.3       1 <0>        -0.0975
      4 C4         -0.9398    1.5076   -2.1473 C.3       1 <0>        -0.1569
      5 C5          0.0308    1.7740   -0.9965 C.3       1 <0>         0.1088
      6 H1          0.8208    1.0217   -1.0070 H         1 <0>         0.0574
      7 C6         -0.7262    1.6978    0.3318 C.3       1 <0>        -0.0982
      8 C7         -1.8126    2.7712    0.3578 C.3       1 <0>        -0.1115
      9 H2         -1.3613    3.7617    0.2949 H         1 <0>         0.1050
     10 C8         -2.6021    2.6554    1.6510 C.2       1 <0>         0.3941
     11 O1         -2.6617    3.5502    2.4629 O.2       1 <0>        -0.4466
     12 C9         -3.2914    1.3671    1.8379 C.2       1 <0>        -0.2328
     13 C10        -3.7973    0.7900    0.7509 C.2       1 <0>        -0.0452
     14 C11        -3.7329    1.4184   -0.6127 C.3       1 <0>        -0.0613
     15 H3         -4.7078    1.9148   -0.7466 H         1 <0>         0.0853
     16 C12        -3.6990    0.3437   -1.6822 C.3       1 <0>        -0.1003
     17 C13        -4.9646   -0.5340   -1.6424 C.3       1 <0>        -0.1519
     18 C14        -5.5390   -0.6374   -0.2649 C.3       1 <0>        -0.0263
     19 C15        -4.4525   -0.5586    0.8341 C.3       1 <0>         0.1653
     20 C16        -5.2785   -0.8078    2.1037 C.3       1 <0>        -0.1500
     21 C17        -6.2970   -1.8963    1.6707 C.3       1 <0>        -0.1156
     22 C18        -6.3020   -1.9099    0.1189 C.3       1 <0>        -0.0962
     23 H4         -7.3284   -1.8304   -0.2501 H         1 <0>         0.0733
     24 C19        -5.6456   -3.1763   -0.4109 C.3       1 <0>         0.1166
     25 C20        -5.4637   -3.0612   -1.9257 C.3       1 <0>        -0.1516
     26 C21        -6.5331   -4.3817   -0.0939 C.3       1 <0>         0.0791
     27 H5         -7.4885   -4.2745   -0.6076 H         1 <0>         0.0983
     28 C22        -5.8414   -5.6623   -0.5655 C.3       1 <0>        -0.1438
     29 C23        -6.7801   -6.8533   -0.3626 C.3       1 <0>        -0.1404
     30 C24        -6.0884   -8.1340   -0.8341 C.3       1 <0>         0.1256
     31 C25        -7.0695   -9.3049   -0.7480 C.3       1 <0>        -0.1803
     32 C26        -5.6270   -7.9608   -2.2826 C.3       1 <0>        -0.1432
     33 O2         -4.9570   -8.3983   -0.0022 O.3       1 <0>        -0.5590
     34 O3         -6.7555   -4.4518    1.3159 O.3       1 <0>        -0.5519
     35 O4         -4.3701   -3.3475    0.2103 O.3       1 <0>        -0.5087
     36 O5         -3.4578   -1.5863    0.6877 O.3       1 <0>        -0.4949
     37 C27        -6.5627    0.4993   -0.0731 C.3       1 <0>        -0.1590
     38 O6          0.6101    3.0708   -1.1449 O.3       1 <0>        -0.5635
     39 H6         -3.0473    4.7106   -0.9850 H         1 <0>         0.0627
     40 H7         -4.3994    3.7513   -1.6330 H         1 <0>         0.0605
     41 H8         -4.1982    3.9306    0.1265 H         1 <0>         0.0516
     42 H9         -2.7719    2.3264   -2.9347 H         1 <0>         0.0690
     43 H10        -1.6363    3.5331   -2.3308 H         1 <0>         0.0694
     44 H11        -1.3450    0.5037   -2.0556 H         1 <0>         0.0825
     45 H12        -0.3982    1.5774   -3.0952 H         1 <0>         0.0641
     46 H13        -1.1797    0.7115    0.4302 H         1 <0>         0.0850
     47 H14        -0.0308    1.8577    1.1555 H         1 <0>         0.0709
     48 H15        -3.3826    0.9167    2.8081 H         1 <0>         0.1386
     49 H16        -3.6307    0.8069   -2.6686 H         1 <0>         0.0677
     50 H17        -2.8263   -0.2974   -1.5348 H         1 <0>         0.0731
     51 H18        -5.7144   -0.0793   -2.3104 H         1 <0>         0.0511
     52 H19        -4.7210   -1.5121   -2.0586 H         1 <0>         0.1205
     53 H20        -4.6401   -1.1865    2.9066 H         1 <0>         0.0686
     54 H21        -5.7832    0.0972    2.4367 H         1 <0>         0.0739
     55 H22        -5.9913   -2.8726    2.0493 H         1 <0>         0.0814
     56 H23        -7.2907   -1.6498    2.0428 H         1 <0>         0.0640
     57 H24        -4.4317   -2.7901   -2.1482 H         1 <0>         0.0904
     58 H25        -5.6971   -4.0177   -2.3934 H         1 <0>         0.0593
     59 H26        -6.1329   -2.2937   -2.3147 H         1 <0>         0.0726
     60 H27        -5.5919   -5.5724   -1.6227 H         1 <0>         0.0784
     61 H28        -4.9293   -5.8162    0.0112 H         1 <0>         0.0781
     62 H29        -7.0296   -6.9433    0.6947 H         1 <0>         0.0691
     63 H30        -7.6921   -6.6995   -0.9393 H         1 <0>         0.0671
     64 H31        -7.9324   -9.1033   -1.3826 H         1 <0>         0.0648
     65 H32        -6.5767  -10.2173   -1.0839 H         1 <0>         0.0634
     66 H33        -7.3982   -9.4283    0.2839 H         1 <0>         0.0575
     67 H34        -4.9280   -7.1266   -2.3439 H         1 <0>         0.0668
     68 H35        -5.1342   -8.8731   -2.6185 H         1 <0>         0.0608
     69 H36        -6.4900   -7.7591   -2.9172 H         1 <0>         0.0680
     70 H37        -5.1755   -8.5194    0.9320 H         1 <0>         0.3740
     71 H38        -5.9468   -4.5479    1.8373 H         1 <0>         0.3686
     72 H39        -4.4092   -3.4277    1.1732 H         1 <0>         0.3600
     73 H40        -2.7604   -1.5570    1.3570 H         1 <0>         0.3573
     74 H41        -7.2845    0.4798   -0.8896 H         1 <0>         0.0610
     75 H42        -7.0829    0.3636    0.8751 H         1 <0>         0.0596
     76 H43        -6.0443    1.4582   -0.0692 H         1 <0>         0.0600
     77 H44         1.1063    3.1881   -1.9666 H         1 <0>         0.3771
@<TRIPOS>BOND
     1    1    2 1
     2    1   39 1
     3    1   40 1
     4    1   41 1
     5    2    8 1
     6    2   14 1
     7    2    3 1
     8    3    4 1
     9    3   42 1
    10    3   43 1
    11    4    5 1
    12    4   44 1
    13    4   45 1
    14    5    6 1
    15    5    7 1
    16    5   38 1
    17    7    8 1
    18    7   46 1
    19    7   47 1
    20    8    9 1
    21    8   10 1
    22   10   11 2
    23   10   12 1
    24   12   13 2
    25   12   48 1
    26   13   19 1
    27   13   14 1
    28   14   15 1
    29   14   16 1
    30   16   17 1
    31   16   49 1
    32   16   50 1
    33   17   18 1
    34   17   51 1
    35   17   52 1
    36   18   22 1
    37   18   19 1
    38   18   37 1
    39   19   20 1
    40   19   36 1
    41   20   21 1
    42   20   53 1
    43   20   54 1
    44   21   22 1
    45   21   55 1
    46   21   56 1
    47   22   23 1
    48   22   24 1
    49   24   25 1
    50   24   26 1
    51   24   35 1
    52   25   57 1
    53   25   58 1
    54   25   59 1
    55   26   27 1
    56   26   28 1
    57   26   34 1
    58   28   29 1
    59   28   60 1
    60   28   61 1
    61   29   30 1
    62   29   62 1
    63   29   63 1
    64   30   31 1
    65   30   32 1
    66   30   33 1
    67   31   64 1
    68   31   65 1
    69   31   66 1
    70   32   67 1
    71   32   68 1
    72   32   69 1
    73   33   70 1
    74   34   71 1
    75   35   72 1
    76   36   73 1
    77   37   74 1
    78   37   75 1
    79   37   76 1
    80   38   77 1
@<TRIPOS>MOLECULE
ZINC31818837
   55    57     0     0     0
SMALL
USER_CHARGES

@<TRIPOS>ATOM
      1 C1         -0.0187    1.5258    0.0104 C.3       1 <0>        -0.1576
      2 C2          0.0021   -0.0041    0.0020 C.3       1 <0>        -0.1165
      3 C3         -1.4333   -0.5336    0.0129 C.3       1 <0>        -0.0574
      4 C4         -2.1494   -0.0402    1.2717 C.3       1 <0>        -0.1508
      5 C5         -2.1733   -0.0268   -1.2266 C.3       1 <0>        -0.1474
      6 C6         -1.4126   -2.0635    0.0045 C.3       1 <0>        -0.0703
      7 H1         -0.9026   -2.4167   -0.8918 H         1 <0>         0.0772
      8 C7         -2.8482   -2.5960    0.0212 C.3       1 <0>        -0.1176
      9 C8         -2.8474   -4.1047   -0.2350 C.3       1 <0>        -0.0605
     10 C9         -1.8787   -4.7635    0.7361 C.2       1 <0>        -0.0565
     11 C10        -0.9298   -4.0457    1.3766 C.2       1 <0>        -0.2190
     12 S1         -0.0710   -5.2274    2.3738 S.3       1 <0>         0.3169
     13 C11        -0.9220   -6.6170    1.9679 C.2       1 <0>         0.0522
     14 C12        -1.8735   -6.1784    1.0618 C.2       1 <0>        -0.1353
     15 C13        -2.8134   -7.0830    0.4711 C.1       1 <0>         0.2692
     16 N1         -3.5590   -7.8006    0.0024 N.1       1 <0>        -0.4265
     17 N2         -0.7183   -7.9088    2.4330 N.am      1 <0>        -0.6151
     18 C14         0.2638   -8.1579    3.3218 C.2       1 <0>         0.5313
     19 O1          0.9695   -7.2534    3.7151 O.2       1 <0>        -0.4772
     20 C15         0.4850   -9.5605    3.8268 C.3       1 <0>        -0.1511
     21 S2          1.8678   -9.5693    5.0008 S.3       1 <0>         0.0957
     22 C16         1.9982  -11.2561    5.4932 C.ar      1 <0>         0.3662
     23 N3          1.1615  -12.1452    4.9781 N.ar      1 <0>        -0.6225
     24 C17         1.2308  -13.4279    5.3264 C.ar      1 <0>         0.4773
     25 C18         2.1976  -13.8296    6.2436 C.ar      1 <0>        -0.3693
     26 C19         3.0586  -12.8673    6.7631 C.ar      1 <0>         0.4789
     27 N4          2.9338  -11.6035    6.3648 N.ar      1 <0>        -0.5878
     28 N5          4.0365  -13.2214    7.6796 N.pl3     1 <0>        -0.8340
     29 N6          0.3514  -14.3516    4.7832 N.pl3     1 <0>        -0.8363
     30 C20        -0.6753   -2.5748    1.2510 C.3       1 <0>        -0.0345
     31 H2          1.0039    1.9031    0.0027 H         1 <0>         0.0515
     32 H3         -0.5459    1.8868   -0.8726 H         1 <0>         0.0561
     33 H4         -0.5289    1.8773    0.9072 H         1 <0>         0.0570
     34 H5          0.5123   -0.3556   -0.8948 H         1 <0>         0.0618
     35 H6          0.5293   -0.3651    0.8851 H         1 <0>         0.0648
     36 H7         -2.1642    1.0497    1.2777 H         1 <0>         0.0581
     37 H8         -3.1720   -0.4175    1.2794 H         1 <0>         0.0574
     38 H9         -1.6223   -0.4013    2.1547 H         1 <0>         0.0589
     39 H10        -1.6631   -0.3783   -2.1234 H         1 <0>         0.0545
     40 H11        -3.1959   -0.4041   -1.2189 H         1 <0>         0.0580
     41 H12        -2.1881    1.0631   -1.2207 H         1 <0>         0.0589
     42 H13        -3.2979   -2.3941    0.9934 H         1 <0>         0.0704
     43 H14        -3.4284   -2.0973   -0.7551 H         1 <0>         0.0760
     44 H15        -3.8498   -4.5029   -0.0780 H         1 <0>         0.0743
     45 H16        -2.5293   -4.3016   -1.2588 H         1 <0>         0.0797
     46 H17        -1.2827   -8.6322    2.1185 H         1 <0>         0.4234
     47 H18        -0.4175   -9.9135    4.3258 H         1 <0>         0.1325
     48 H19         0.7165  -10.2165    2.9877 H         1 <0>         0.1326
     49 H20         2.2774  -14.8635    6.5454 H         1 <0>         0.1374
     50 H21         4.1240  -14.1450    7.9630 H         1 <0>         0.4126
     51 H22         4.6332  -12.5456    8.0376 H         1 <0>         0.4094
     52 H23        -0.3201  -14.0646    4.1447 H         1 <0>         0.4068
     53 H24         0.4076  -15.2849    5.0415 H         1 <0>         0.4123
     54 H25         0.3942   -2.3926    1.1458 H         1 <0>         0.0842
     55 H26        -1.0506   -2.0615    2.1363 H         1 <0>         0.0897
@<TRIPOS>BOND
     1    1    2 1
     2    1   31 1
     3    1   32 1
     4    1   33 1
     5    2    3 1
     6    2   34 1
     7    2   35 1
     8    3    4 1
     9    3    5 1
    10    3    6 1
    11    4   36 1
    12    4   37 1
    13    4   38 1
    14    5   39 1
    15    5   40 1
    16    5   41 1
    17    6    7 1
    18    6   30 1
    19    6    8 1
    20    8    9 1
    21    8   42 1
    22    8   43 1
    23    9   10 1
    24    9   44 1
    25    9   45 1
    26   10   14 1
    27   10   11 2
    28   11   12 1
    29   11   30 1
    30   12   13 1
    31   13   14 2
    32   13   17 1
    33   14   15 1
    34   15   16 3
    35   17   18 am
    36   17   46 1
    37   18   19 2
    38   18   20 1
    39   20   21 1
    40   20   47 1
    41   20   48 1
    42   21   22 1
    43   22   27 ar
    44   22   23 ar
    45   23   24 ar
    46   24   25 ar
    47   24   29 1
    48   25   26 ar
    49   25   49 1
    50   26   27 ar
    51   26   28 1
    52   28   50 1
    53   28   51 1
    54   29   52 1
    55   29   53 1
    56   30   54 1
    57   30   55 1
@<TRIPOS>MOLECULE
ZINC04963950
   41    43     0     0     0
SMALL
USER_CHARGES
2-amino-9-[3,4-dihydroxy-5-(hydroxymethyl)tetrahydrofuran-2-yl]-8-ethylamino-3H-purin-6-one
@<TRIPOS>ATOM
      1 C1         -6.8002    3.4125    0.9556 C.3       1 <0>        -0.1654
      2 C2         -5.3049    3.6624    0.7493 C.3       1 <0>         0.1425
      3 N1         -4.6346    2.3946    0.4501 N.pl3     1 <0>        -0.7089
      4 C3         -3.2700    2.3701    0.2240 C.2       1 <0>         0.5242
      5 N2         -2.4943    3.4233    0.1589 N.2       1 <0>        -0.4768
      6 C4         -1.2190    3.0213   -0.0741 C.2       1 <0>        -0.0954
      7 C5         -1.2272    1.6363   -0.1614 C.2       1 <0>         0.2715
      8 N3         -2.5200    1.2422    0.0335 N.pl3     1 <0>        -0.4664
      9 C6         -3.0145   -0.1368    0.0331 C.3       1 <0>         0.3031
     10 H1         -3.6981   -0.2856    0.8689 H         1 <0>         0.1340
     11 C7         -3.7346   -0.4348   -1.2963 C.3       1 <0>         0.0706
     12 H2         -4.7527   -0.7771   -1.1104 H         1 <0>         0.0997
     13 C8         -2.8925   -1.5636   -1.9394 C.3       1 <0>         0.0433
     14 H3         -2.7801   -1.4024   -3.0115 H         1 <0>         0.0884
     15 C9         -1.5329   -1.4093   -1.2113 C.3       1 <0>         0.0496
     16 H4         -0.9412   -0.6156   -1.6674 H         1 <0>         0.1135
     17 O1         -1.9107   -1.0519    0.1356 O.3       1 <0>        -0.3164
     18 C10        -0.7595   -2.7294   -1.2217 C.3       1 <0>         0.0843
     19 O2          0.4932   -2.5528   -0.5571 O.3       1 <0>        -0.5472
     20 O3         -3.4698   -2.8439   -1.6756 O.3       1 <0>        -0.5490
     21 O4         -3.7400    0.7237   -2.1329 O.3       1 <0>        -0.5340
     22 N4         -0.0472    0.9805   -0.4043 N.2       1 <0>        -0.5029
     23 H5          2.0342    3.4533   -0.6264 H         1 <0>         0.4225
     24 C11         1.1079    1.6761   -0.5679 C.2       1 <0>         0.5688
     25 N5          1.1578    2.9890   -0.4986 N.am      1 <0>        -0.6394
     26 C12         0.0562    3.7177   -0.2598 C.2       1 <0>         0.5787
     27 O5          0.1159    4.9362   -0.1983 O.2       1 <0>        -0.5124
     28 N6          2.2645    0.9845   -0.8142 N.pl3     1 <0>        -0.7448
     29 H6         -7.2251    2.9819    0.0489 H         1 <0>         0.0610
     30 H7         -6.9418    2.7216    1.7868 H         1 <0>         0.0606
     31 H8         -7.2989    4.3558    1.1782 H         1 <0>         0.0778
     32 H9         -4.8800    4.0929    1.6561 H         1 <0>         0.0654
     33 H10        -5.1632    4.3533   -0.0818 H         1 <0>         0.0679
     34 H11        -5.1475    1.5723    0.4106 H         1 <0>         0.4034
     35 H12        -1.3397   -3.4945   -0.7060 H         1 <0>         0.0562
     36 H13        -0.5836   -3.0393   -2.2518 H         1 <0>         0.0588
     37 H14         1.0378   -3.3512   -0.5257 H         1 <0>         0.3778
     38 H15        -2.9325   -3.5879   -1.9805 H         1 <0>         0.3857
     39 H16        -4.1809    0.5926   -2.9834 H         1 <0>         0.3889
     40 H17         2.4495    0.3625   -0.0534 H         1 <0>         0.3826
     41 H18         3.0996    1.4632   -0.9339 H         1 <0>         0.3784
@<TRIPOS>BOND
     1    1    2 1
     2    1   29 1
     3    1   30 1
     4    1   31 1
     5    2    3 1
     6    2   32 1
     7    2   33 1
     8    3    4 1
     9    3   34 1
    10    4    8 1
    11    4    5 2
    12    5    6 1
    13    6    7 2
    14    6   26 1
    15    7    8 1
    16    7   22 1
    17    8    9 1
    18    9   10 1
    19    9   17 1
    20    9   11 1
    21   11   12 1
    22   11   13 1
    23   11   21 1
    24   13   14 1
    25   13   15 1
    26   13   20 1
    27   15   16 1
    28   15   17 1
    29   15   18 1
    30   18   19 1
    31   18   35 1
    32   18   36 1
    33   19   37 1
    34   20   38 1
    35   21   39 1
    36   22   24 2
    37   23   25 1
    38   24   25 1
    39   24   28 1
    40   25   26 am
    41   26   27 2
    42   28   41 1
    43   28   40 1
@<TRIPOS>MOLECULE
ZINC15775157
   39    40     0     0     0
SMALL
USER_CHARGES
(1R,2R,3R,4S)-1-(5-anilino-1,3,4-thiadiazol-2-yl)pentane-1,2,3,4,5-pentol
@<TRIPOS>ATOM
      1 C1         -0.2780   -4.9896   -0.3372 C.ar      1 <0>        -0.1350
      2 C2         -1.4366   -4.5561    0.2811 C.ar      1 <0>        -0.0937
      3 C3         -1.6949   -3.2044    0.3973 C.ar      1 <0>        -0.1470
      4 C4         -0.7894   -2.2799   -0.1078 C.ar      1 <0>         0.1511
      5 C5          0.3709   -2.7189   -0.7330 C.ar      1 <0>        -0.1311
      6 C6          0.6253   -4.0719   -0.8415 C.ar      1 <0>        -0.0909
      7 N1         -1.0479   -0.9114    0.0076 N.pl3     1 <0>        -0.5993
      8 C7          0.0017   -0.0037   -0.0028 C.2       1 <0>         0.3220
      9 N2          1.3116   -0.2134   -0.0073 N.2       1 <0>        -0.3350
     10 N3          2.1374    0.7398   -0.0165 N.2       1 <0>        -0.2337
     11 C8          1.7544    2.0006   -0.0222 C.2       1 <0>         0.0121
     12 S1         -0.0233    1.7867   -0.0131 S.3       1 <0>        -0.0168
     13 C9          2.5778    3.2627   -0.0331 C.3       1 <0>         0.1901
     14 H1          1.9438    4.1079   -0.3013 H         1 <0>         0.1233
     15 C10         3.1753    3.4940    1.3563 C.3       1 <0>         0.0607
     16 H2          3.8093    2.6489    1.6244 H         1 <0>         0.1185
     17 C11         4.0113    4.7754    1.3451 C.3       1 <0>         0.0536
     18 H3          3.3772    5.6205    1.0770 H         1 <0>         0.1138
     19 C12         4.6088    5.0066    2.7345 C.3       1 <0>         0.0812
     20 H4          3.8065    5.1919    3.4488 H         1 <0>         0.1182
     21 C13         5.5439    6.2169    2.6925 C.3       1 <0>         0.0481
     22 O1          6.0109    6.5039    4.0122 O.3       1 <0>        -0.5660
     23 O2          5.3452    3.8493    3.1350 O.3       1 <0>        -0.5419
     24 O3          5.0652    4.6482    0.3885 O.3       1 <0>        -0.5318
     25 O4          2.1214    3.6211    2.3129 O.3       1 <0>        -0.5355
     26 O5          3.6317    3.1356   -0.9898 O.3       1 <0>        -0.5152
     27 H5         -0.0784   -6.0472   -0.4267 H         1 <0>         0.1263
     28 H6         -2.1403   -5.2754    0.6733 H         1 <0>         0.1297
     29 H7         -2.6001   -2.8666    0.8799 H         1 <0>         0.1274
     30 H8          1.0749   -2.0029   -1.1307 H         1 <0>         0.1422
     31 H9          1.5290   -4.4139   -1.3241 H         1 <0>         0.1289
     32 H10        -1.9610   -0.5960    0.0948 H         1 <0>         0.4310
     33 H11         6.3936    5.9972    2.0461 H         1 <0>         0.0564
     34 H12         5.0041    7.0797    2.3025 H         1 <0>         0.0551
     35 H13         6.6101    7.2613    4.0613 H         1 <0>         0.3817
     36 H14         6.0765    3.6244    2.5437 H         1 <0>         0.3681
     37 H15         5.6699    3.9145    0.5648 H         1 <0>         0.3727
     38 H16         1.5166    4.3548    2.1366 H         1 <0>         0.3760
     39 H17         4.2365    2.4019   -0.8135 H         1 <0>         0.3850
@<TRIPOS>BOND
     1    1    6 ar
     2    1    2 ar
     3    1   27 1
     4    2    3 ar
     5    2   28 1
     6    3    4 ar
     7    3   29 1
     8    4    5 ar
     9    4    7 1
    10    5    6 ar
    11    5   30 1
    12    6   31 1
    13    7    8 1
    14    7   32 1
    15    8   12 1
    16    8    9 2
    17    9   10 1
    18   10   11 2
    19   11   12 1
    20   11   13 1
    21   13   14 1
    22   13   15 1
    23   13   26 1
    24   15   16 1
    25   15   17 1
    26   15   25 1
    27   17   18 1
    28   17   19 1
    29   17   24 1
    30   19   20 1
    31   19   21 1
    32   19   23 1
    33   21   22 1
    34   21   33 1
    35   21   34 1
    36   22   35 1
    37   23   36 1
    38   24   37 1
    39   25   38 1
    40   26   39 1
@<TRIPOS>MOLECULE
ZINC38661690
   44    45     0     0     0
SMALL
USER_CHARGES

@<TRIPOS>ATOM
      1 C1          2.5317    1.2939   -0.7148 C.3       1 <0>        -0.1577
      2 C2          2.2900   -0.2142   -0.8049 C.3       1 <0>        -0.1393
      3 C3          0.8319   -0.4750   -1.1881 C.3       1 <0>        -0.1104
      4 H1          0.5973    0.0585   -2.1092 H         1 <0>         0.1285
      5 C4         -0.0859    0.0157   -0.0666 C.3       1 <0>        -0.1702
      6 C5          0.6208   -1.9755   -1.4000 C.3       1 <0>        -0.0012
      7 H2         -0.4335   -2.1699   -1.5969 H         1 <0>         0.1528
      8 C6          1.4572   -2.4449   -2.5921 C.3       1 <0>         0.2789
      9 H3          2.5129   -2.2316   -2.4240 H         1 <0>         0.1223
     10 N1          1.2533   -3.8846   -2.8305 N.pl3     1 <0>        -0.6790
     11 N2          0.7125   -3.9741   -4.1216 N.2       1 <0>        -0.2762
     12 C7          0.5851   -2.7992   -4.6371 C.2       1 <0>         0.2230
     13 O1          1.0044   -1.8185   -3.8013 O.3       1 <0>        -0.2826
     14 S1         -0.0604   -2.5015   -6.2494 S.3       1 <0>         0.0594
     15 C8         -0.4440   -4.1580   -6.8813 C.3       1 <0>        -0.0306
     16 C9         -1.0118   -4.0458   -8.2727 C.2       1 <0>        -0.2830
     17 H4         -0.2551   -4.5058  -11.3737 H         1 <0>         0.4422
     18 C10        -0.2623   -4.3763   -9.3461 C.2       1 <0>         0.2524
     19 N3         -0.7935   -4.2684  -10.6025 N.am      1 <0>        -0.6293
     20 C11        -2.0553   -3.8359  -10.7783 C.2       1 <0>         0.6994
     21 O2         -2.5072   -3.7472  -11.9036 O.2       1 <0>        -0.5213
     22 N4         -2.8245   -3.5003   -9.7261 N.am      1 <0>        -0.6563
     23 C12        -2.3401   -3.5981   -8.4715 C.2       1 <0>         0.5590
     24 O3         -3.0371   -3.2996   -7.5185 O.2       1 <0>        -0.4991
     25 C13         1.1525   -4.8610   -9.1613 C.3       1 <0>        -0.1430
     26 N5          1.0360   -2.7036   -0.1936 N.4       1 <0>        -0.6293
     27 H5          2.3220    1.7538   -1.6805 H         1 <0>         0.0670
     28 H6          1.8748    1.7226    0.0421 H         1 <0>         0.0650
     29 H7          3.5704    1.4797   -0.4418 H         1 <0>         0.0675
     30 H8          2.9468   -0.6429   -1.5617 H         1 <0>         0.0774
     31 H9          2.4996   -0.6741    0.1609 H         1 <0>         0.0606
     32 H10        -0.0194    1.1011    0.0086 H         1 <0>         0.0905
     33 H11        -1.1141   -0.2709   -0.2870 H         1 <0>         0.0736
     34 H12         0.2221   -0.4334    0.8776 H         1 <0>         0.0556
     35 H13         1.4512   -4.6151   -2.2238 H         1 <0>         0.4469
     36 H14         0.4665   -4.7567   -6.9076 H         1 <0>         0.1150
     37 H15        -1.1743   -4.6359   -6.2283 H         1 <0>         0.1153
     38 H16        -3.7322   -3.1902   -9.8706 H         1 <0>         0.4379
     39 H17         1.1541   -5.9459   -9.0559 H         1 <0>         0.1092
     40 H18         1.7493   -4.5794  -10.0289 H         1 <0>         0.0966
     41 H19         1.5776   -4.4083   -8.2655 H         1 <0>         0.1035
     42 H20         0.8969   -3.6931   -0.3333 H         1 <0>         0.4329
     43 H21         2.0120   -2.5236   -0.0113 H         1 <0>         0.4336
     44 H22         0.4845   -2.3941    0.5926 H         1 <0>         0.4427
@<TRIPOS>BOND
     1    1    2 1
     2    1   27 1
     3    1   28 1
     4    1   29 1
     5    2    3 1
     6    2   30 1
     7    2   31 1
     8    3    4 1
     9    3    5 1
    10    3    6 1
    11    5   32 1
    12    5   33 1
    13    5   34 1
    14    6    7 1
    15    6    8 1
    16    6   26 1
    17    8    9 1
    18    8   13 1
    19    8   10 1
    20   10   11 1
    21   10   35 1
    22   11   12 2
    23   12   13 1
    24   12   14 1
    25   14   15 1
    26   15   36 1
    27   15   37 1
    28   15   16 1
    29   16   23 1
    30   16   18 2
    31   17   19 1
    32   18   25 1
    33   18   19 1
    34   19   20 am
    35   20   21 2
    36   20   22 am
    37   22   38 1
    38   22   23 am
    39   23   24 2
    40   25   39 1
    41   25   40 1
    42   25   41 1
    43   26   42 1
    44   26   43 1
    45   26   44 1
@<TRIPOS>MOLECULE
ZINC40760736
   54    56     0     0     0
SMALL
USER_CHARGES

@<TRIPOS>ATOM
      1 C1          0.0060    1.0228    0.1986 C.3       1 <0>        -0.1768
      2 C2          0.2793   -0.4812    0.3041 C.3       1 <0>         0.0635
      3 C3          0.8584   -0.9937   -1.0105 C.3       1 <0>        -0.1423
      4 C4          2.3148   -0.5530   -1.1584 C.3       1 <0>         0.1591
      5 C5          3.1082   -1.1279    0.0152 C.3       1 <0>        -0.1420
      6 C6          2.5460   -0.6170    1.3377 C.3       1 <0>         0.0594
      7 N1          1.1087   -0.7876    1.4562 N.4       1 <0>        -0.4904
      8 C7          2.9521    0.8462    1.5427 C.3       1 <0>        -0.1714
      9 C8          3.2115   -1.4348    2.4690 C.3       1 <0>        -0.1790
     10 N2          2.8561   -1.0847   -2.4153 N.pl3     1 <0>        -0.7181
     11 C9          3.9207   -0.4452   -3.0390 C.ar      1 <0>         0.3948
     12 C10         4.4402   -0.9383   -4.2377 C.ar      1 <0>         0.0095
     13 C11         5.5097   -0.2578   -4.8218 C.ar      1 <0>         0.3979
     14 N3          5.9901    0.8273   -4.2186 N.ar      1 <0>        -0.5505
     15 C12         5.4706    1.2594   -3.0877 C.ar      1 <0>         0.3243
     16 N4          4.4573    0.6497   -2.5061 N.ar      1 <0>        -0.5728
     17 N5          6.0649   -0.7065   -6.0151 N.pl3     1 <0>        -0.6544
     18 C13         7.2095   -0.0906   -6.5284 C.ar      1 <0>         0.1564
     19 C14         7.3660    0.0541   -7.9011 C.ar      1 <0>        -0.1508
     20 C15         8.4984    0.6633   -8.4049 C.ar      1 <0>        -0.0982
     21 C16         9.4761    1.1285   -7.5447 C.ar      1 <0>        -0.1346
     22 C17         9.3237    0.9856   -6.1776 C.ar      1 <0>        -0.1003
     23 C18         8.1908    0.3834   -5.6668 C.ar      1 <0>        -0.1126
     24 N6          3.9018   -2.0875   -4.8386 N.pl3     1 <0>        -0.8752
     25 C19        -1.0865   -1.1768    0.5093 C.3       1 <0>        -0.1800
     26 H1          0.9504    1.5575    0.0977 H         1 <0>         0.0846
     27 H2         -0.6173    1.2184   -0.6740 H         1 <0>         0.1042
     28 H3         -0.5096    1.3623    1.0969 H         1 <0>         0.0841
     29 H4          0.8064   -2.0848   -1.0312 H         1 <0>         0.0917
     30 H5          0.2743   -0.5983   -1.8450 H         1 <0>         0.1139
     31 H6          2.3858    0.5308   -1.1723 H         1 <0>         0.1096
     32 H7          3.0507   -2.2187   -0.0086 H         1 <0>         0.0854
     33 H8          4.1554   -0.8293   -0.0753 H         1 <0>         0.1143
     34 H9          0.7823   -0.2223    2.2462 H         1 <0>         0.4263
     35 H10         2.5579    1.4505    0.7257 H         1 <0>         0.0842
     36 H11         2.5480    1.2063    2.4888 H         1 <0>         0.0796
     37 H12         4.0393    0.9226    1.5594 H         1 <0>         0.1057
     38 H13         4.2916   -1.2928    2.4328 H         1 <0>         0.1062
     39 H14         2.8326   -1.0962    3.4333 H         1 <0>         0.0826
     40 H15         2.9794   -2.4917    2.3381 H         1 <0>         0.0799
     41 H16         2.4707   -1.8824   -2.8104 H         1 <0>         0.4061
     42 H17         5.8850    2.1431   -2.6253 H         1 <0>         0.1975
     43 H18         5.6578   -1.4471   -6.4913 H         1 <0>         0.4133
     44 H19         6.6032   -0.3096   -8.5735 H         1 <0>         0.1215
     45 H20         8.6207    0.7761   -9.4720 H         1 <0>         0.1263
     46 H21        10.3609    1.6041   -7.9413 H         1 <0>         0.1241
     47 H22        10.0895    1.3494   -5.5086 H         1 <0>         0.1251
     48 H23         8.0701    0.2764   -4.5989 H         1 <0>         0.1302
     49 H24         3.1587   -2.5504   -4.4210 H         1 <0>         0.3941
     50 H25         4.2730   -2.4185   -5.6714 H         1 <0>         0.3980
     51 H26        -1.7348   -0.9622   -0.3403 H         1 <0>         0.1066
     52 H27        -0.9375   -2.2535    0.5898 H         1 <0>         0.0813
     53 H28        -1.5500   -0.8048    1.4231 H         1 <0>         0.0846
     54 H29         0.9232   -1.7563    1.7355 H         1 <0>         0.4231
@<TRIPOS>BOND
     1    1    2 1
     2    1   26 1
     3    1   27 1
     4    1   28 1
     5    2    7 1
     6    2    3 1
     7    2   25 1
     8    3    4 1
     9    3   29 1
    10    3   30 1
    11    4    5 1
    12    4   10 1
    13    4   31 1
    14    5    6 1
    15    5   32 1
    16    5   33 1
    17    6    7 1
    18    6    8 1
    19    6    9 1
    20    7   34 1
    21    7   54 1
    22    8   35 1
    23    8   36 1
    24    8   37 1
    25    9   38 1
    26    9   39 1
    27    9   40 1
    28   10   11 1
    29   10   41 1
    30   11   16 ar
    31   11   12 ar
    32   12   13 ar
    33   12   24 1
    34   13   14 ar
    35   13   17 1
    36   14   15 ar
    37   15   16 ar
    38   15   42 1
    39   17   18 1
    40   17   43 1
    41   18   23 ar
    42   18   19 ar
    43   19   20 ar
    44   19   44 1
    45   20   21 ar
    46   20   45 1
    47   21   22 ar
    48   21   46 1
    49   22   23 ar
    50   22   47 1
    51   23   48 1
    52   24   49 1
    53   24   50 1
    54   25   51 1
    55   25   52 1
    56   25   53 1
@<TRIPOS>MOLECULE
ZINC24981806
   43    45     0     0     0
SMALL
USER_CHARGES

@<TRIPOS>ATOM
      1 C1         -0.0167    1.3781    0.0096 C.ar      1 <0>        -0.1011
      2 C2          1.1709    2.0855    0.0021 C.ar      1 <0>        -0.1190
      3 C3          2.3773    1.4107   -0.0130 C.ar      1 <0>        -0.0957
      4 C4          2.3960    0.0285   -0.0201 C.ar      1 <0>        -0.0969
      5 C5          1.2084   -0.6789   -0.0117 C.ar      1 <0>        -0.0951
      6 C6          0.0021   -0.0041    0.0020 C.ar      1 <0>        -0.1185
      7 C7          3.7112   -0.7071   -0.0376 C.3       1 <0>        -0.0500
      8 S1          4.2568   -1.0108    1.6656 S.3       1 <0>         0.0178
      9 C8          5.7857   -1.8662    1.4773 C.2       1 <0>         0.2256
     10 N1          6.5777   -2.3146    2.5064 N.pl3     1 <0>        -0.5297
     11 H1          6.3980   -2.2161    3.4545 H         1 <0>         0.4367
     12 C9          7.6514   -2.9182    1.9548 C.2       1 <0>         0.3776
     13 C10         7.5030   -2.8237    0.5715 C.2       1 <0>        -0.1248
     14 N2          6.3449   -2.1805    0.3303 N.2       1 <0>        -0.4222
     15 C11         8.5322   -3.3837   -0.3168 C.cat     1 <0>         0.6411
     16 N3          9.4275   -4.1772    0.2255 N.pl3     1 <0>        -0.6556
     17 C12         9.4064   -4.5720    1.6291 C.3       1 <0>         0.3547
     18 N4          8.7635   -3.5584    2.4806 N.pl3     1 <0>        -0.6018
     19 C13         9.2728   -3.2416    3.8171 C.3       1 <0>         0.0888
     20 C14         8.5973   -4.1479    4.8483 C.3       1 <0>         0.0814
     21 H2          8.8150   -5.1899    4.6141 H         1 <0>         0.1204
     22 C15         9.1293   -3.8170    6.2442 C.3       1 <0>         0.0449
     23 O1          8.5869   -4.7392    7.1916 O.3       1 <0>        -0.5607
     24 O2          7.1844   -3.9372    4.8147 O.3       1 <0>        -0.5419
     25 N5          8.5562   -3.0881   -1.6651 N.pl3     1 <0>        -0.7754
     26 H3         -0.9591    1.9053    0.0259 H         1 <0>         0.1286
     27 H4          1.1563    3.1654    0.0076 H         1 <0>         0.1291
     28 H5          3.3051    1.9634   -0.0196 H         1 <0>         0.1265
     29 H6          1.2231   -1.7588   -0.0176 H         1 <0>         0.1270
     30 H7         -0.9258   -0.5567    0.0082 H         1 <0>         0.1293
     31 H8          3.5884   -1.6586   -0.5549 H         1 <0>         0.1076
     32 H9          4.4573   -0.1052   -0.5563 H         1 <0>         0.1070
     33 H10         8.8619   -5.5114    1.7244 H         1 <0>         0.1104
     34 H11        10.4308   -4.7224    1.9699 H         1 <0>         0.1372
     35 H12        10.3506   -3.4023    3.8428 H         1 <0>         0.1176
     36 H13         9.0551   -2.1995    4.0513 H         1 <0>         0.0937
     37 H14        10.2167   -3.8919    6.2458 H         1 <0>         0.0628
     38 H15         8.8345   -2.8030    6.5145 H         1 <0>         0.0538
     39 H16         8.8819   -4.5888    8.1001 H         1 <0>         0.3910
     40 H17         6.9172   -3.0295    5.0141 H         1 <0>         0.3641
     41 H18         7.8849   -2.4998   -2.0447 H         1 <0>         0.4479
     42 H19         9.2445   -3.4687   -2.2328 H         1 <0>         0.4286
     43 H20        10.1399   -4.5187   -0.3373 H         1 <0>         0.4374
@<TRIPOS>BOND
     1    1    6 ar
     2    1    2 ar
     3    1   26 1
     4    2    3 ar
     5    2   27 1
     6    3    4 ar
     7    3   28 1
     8    4    5 ar
     9    4    7 1
    10    5    6 ar
    11    5   29 1
    12    6   30 1
    13    7    8 1
    14    7   31 1
    15    7   32 1
    16    8    9 1
    17    9   14 2
    18    9   10 1
    19   10   11 1
    20   10   12 1
    21   12   18 1
    22   12   13 2
    23   13   14 1
    24   13   15 1
    25   15   16 2
    26   15   25 1
    27   16   17 1
    28   16   43 1
    29   17   18 1
    30   17   33 1
    31   17   34 1
    32   18   19 1
    33   19   20 1
    34   19   35 1
    35   19   36 1
    36   20   21 1
    37   20   22 1
    38   20   24 1
    39   22   23 1
    40   22   37 1
    41   22   38 1
    42   23   39 1
    43   24   40 1
    44   25   41 1
    45   25   42 1
@<TRIPOS>MOLECULE
ZINC07004088
   51    52     0     0     0
SMALL
USER_CHARGES
(3-carbamoyl-4,5,6,7-tetrahydrobenzothiophen-2-yl)carbamoylmethyl 3-methyl-2-ureido-butanoate
@<TRIPOS>ATOM
      1 C1         -4.3190    4.5649    1.4844 C.3       1 <0>        -0.1576
      2 C2         -2.9838    3.8180    1.4740 C.3       1 <0>        -0.1004
      3 C3         -3.1740    2.4248    2.0770 C.3       1 <0>        -0.1356
      4 C4         -2.4841    3.6866    0.0339 C.3       1 <0>         0.1808
      5 H1         -3.2150    3.1325   -0.5551 H         1 <0>         0.1327
      6 C5         -2.2967    5.0589   -0.5600 C.2       1 <0>         0.4673
      7 O1         -1.2070    5.4041   -0.9515 O.2       1 <0>        -0.4981
      8 O2         -3.3404    5.8977   -0.6542 O.3       1 <0>        -0.3157
      9 C6         -3.0864    7.2032   -1.2368 C.3       1 <0>         0.0500
     10 C7         -4.3650    8.0004   -1.2597 C.2       1 <0>         0.5106
     11 O3         -5.3895    7.5160   -0.8276 O.2       1 <0>        -0.4692
     12 N1         -4.3701    9.2517   -1.7604 N.am      1 <0>        -0.6167
     13 C8         -5.5466    9.9853   -1.7815 C.2       1 <0>         0.0678
     14 C9         -5.7491   11.2770   -2.2463 C.2       1 <0>        -0.2219
     15 C10        -7.0939   11.8198   -2.1570 C.2       1 <0>        -0.0672
     16 C11        -8.0127   10.9933   -1.6118 C.2       1 <0>        -0.2043
     17 S1         -7.1191    9.5143   -1.2269 S.3       1 <0>         0.2356
     18 C12        -9.4654   11.2801   -1.3876 C.3       1 <0>        -0.0371
     19 C13        -9.6867   12.7934   -1.5256 C.3       1 <0>        -0.1143
     20 C14        -8.9956   13.2786   -2.8032 C.3       1 <0>        -0.1200
     21 C15        -7.4771   13.2172   -2.6285 C.3       1 <0>        -0.0613
     22 C16        -4.6477   12.0635   -2.8103 C.2       1 <0>         0.5834
     23 O4         -4.4107   12.0109   -4.0030 O.2       1 <0>        -0.5321
     24 N2         -3.8976   12.8447   -2.0081 N.am      1 <0>        -0.8475
     25 N3         -1.2056    2.9714    0.0239 N.am      1 <0>        -0.7342
     26 C17        -1.1873    1.6238    0.0165 C.2       1 <0>         0.7126
     27 O5         -2.2319    1.0016    0.0181 O.2       1 <0>        -0.5820
     28 N4         -0.0111    0.9658    0.0074 N.am      1 <0>        -0.8633
     29 H2         -5.0499    4.0108    0.8954 H         1 <0>         0.0636
     30 H3         -4.6750    4.6586    2.5104 H         1 <0>         0.0626
     31 H4         -4.1835    5.5575    1.0548 H         1 <0>         0.0775
     32 H5         -2.2529    4.3721    2.0630 H         1 <0>         0.0750
     33 H6         -2.2228    1.8927    2.0696 H         1 <0>         0.0548
     34 H7         -3.5300    2.5184    3.1029 H         1 <0>         0.0544
     35 H8         -3.9049    1.8707    1.4880 H         1 <0>         0.0694
     36 H9         -2.3412    7.7288   -0.6397 H         1 <0>         0.1134
     37 H10        -2.7161    7.0810   -2.2546 H         1 <0>         0.1136
     38 H11        -3.5507    9.6391   -2.1060 H         1 <0>         0.4214
     39 H12       -10.0628   10.7523   -2.1311 H         1 <0>         0.0839
     40 H13        -9.7537   10.9559   -0.3877 H         1 <0>         0.0824
     41 H14       -10.7547   13.0025   -1.5860 H         1 <0>         0.0746
     42 H15        -9.2626   13.3049   -0.6615 H         1 <0>         0.0684
     43 H16        -9.2901   12.6427   -3.6380 H         1 <0>         0.0679
     44 H17        -9.2940   14.3067   -3.0082 H         1 <0>         0.0708
     45 H18        -6.9909   13.4275   -3.5812 H         1 <0>         0.0755
     46 H19        -7.1643   13.9535   -1.8882 H         1 <0>         0.0771
     47 H20        -4.0864   12.8866   -1.0576 H         1 <0>         0.4038
     48 H21        -3.1689   13.3650   -2.3812 H         1 <0>         0.4039
     49 H22        -0.3722    3.4678    0.0227 H         1 <0>         0.4063
     50 H23         0.0021   -0.0041    0.0020 H         1 <0>         0.4189
     51 H24         0.8223    1.4622    0.0021 H         1 <0>         0.3988
@<TRIPOS>BOND
     1    1    2 1
     2    1   29 1
     3    1   30 1
     4    1   31 1
     5    2    3 1
     6    2    4 1
     7    2   32 1
     8    3   33 1
     9    3   34 1
    10    3   35 1
    11    4    5 1
    12    4    6 1
    13    4   25 1
    14    6    7 2
    15    6    8 1
    16    8    9 1
    17    9   10 1
    18    9   36 1
    19    9   37 1
    20   10   11 2
    21   10   12 am
    22   12   13 1
    23   12   38 1
    24   13   17 1
    25   13   14 2
    26   14   15 1
    27   14   22 1
    28   15   21 1
    29   15   16 2
    30   16   17 1
    31   16   18 1
    32   18   19 1
    33   18   39 1
    34   18   40 1
    35   19   20 1
    36   19   41 1
    37   19   42 1
    38   20   21 1
    39   20   43 1
    40   20   44 1
    41   21   45 1
    42   21   46 1
    43   22   23 2
    44   22   24 am
    45   24   47 1
    46   24   48 1
    47   25   26 am
    48   25   49 1
    49   26   27 2
    50   26   28 am
    51   28   50 1
    52   28   51 1
@<TRIPOS>MOLECULE
ZINC20921853
   38    39     0     0     0
SMALL
USER_CHARGES
2-[(4-amino-5-hydrazino-1,2,4-triazol-3-yl)sulfanyl]-N-[5-(2-methoxyethylsulfanyl)-1,3,4-thiadiazol-2-yl]acetamide
@<TRIPOS>ATOM
      1 C1        -10.1557  -10.8510    0.0355 C.3       1 <0>         0.0284
      2 O1         -9.2058   -9.7835    0.0332 O.3       1 <0>        -0.3838
      3 C2         -7.8442  -10.2170    0.0184 C.3       1 <0>         0.0760
      4 C3         -6.9206   -8.9972    0.0172 C.3       1 <0>        -0.1225
      5 S1         -5.1922   -9.5476   -0.0016 S.3       1 <0>         0.0673
      6 C4         -4.2673   -8.0478   -0.0011 C.2       1 <0>         0.0110
      7 N1         -4.6838   -6.7900    0.0096 N.2       1 <0>        -0.2537
      8 N2         -3.8772   -5.8204    0.0074 N.2       1 <0>        -0.2731
      9 C5         -2.5665   -5.9987   -0.0057 C.2       1 <0>         0.2894
     10 S2         -2.4958   -7.7877   -0.0233 S.3       1 <0>         0.0527
     11 N3         -1.5357   -5.0621   -0.0105 N.am      1 <0>        -0.6203
     12 C6         -1.8218   -3.7451   -0.0007 C.2       1 <0>         0.5356
     13 O2         -2.9770   -3.3755    0.0124 O.2       1 <0>        -0.4535
     14 C7         -0.7065   -2.7316   -0.0059 C.3       1 <0>        -0.1418
     15 S3         -1.4090   -1.0593    0.0098 S.3       1 <0>         0.0782
     16 C8          0.0021   -0.0041    0.0020 C.2       1 <0>         0.1692
     17 N4          1.2542   -0.3917   -0.0120 N.2       1 <0>        -0.3040
     18 N5          2.0616    0.7532   -0.0136 N.2       1 <0>        -0.3366
     19 C9          1.2769    1.8024   -0.0005 C.2       1 <0>         0.4848
     20 N6         -0.0165    1.3626    0.0095 N.pl3     1 <0>        -0.2655
     21 N7         -1.1324    2.1504    0.0194 N.3       1 <0>        -0.7785
     22 N8          1.6879    3.1291    0.0023 N.pl3     1 <0>        -0.5795
     23 N9          3.0199    3.4315   -0.0087 N.3       1 <0>        -0.5545
     24 H1        -11.1741  -10.4355    0.0471 H         1 <0>         0.0927
     25 H2        -10.0040  -11.4749    0.9287 H         1 <0>         0.0459
     26 H3        -10.0202  -11.4643   -0.8675 H         1 <0>         0.0459
     27 H4         -7.6441  -10.8276    0.9112 H         1 <0>         0.0640
     28 H5         -7.6602  -10.8171   -0.8849 H         1 <0>         0.0640
     29 H6         -7.1208   -8.3866   -0.8756 H         1 <0>         0.1100
     30 H7         -7.1045   -8.3971    0.9205 H         1 <0>         0.1100
     31 H8         -0.4881   -5.3973   -0.0223 H         1 <0>         0.4632
     32 H9         -0.0779   -2.8736    0.8855 H         1 <0>         0.1383
     33 H10        -0.0950   -2.8639   -0.9106 H         1 <0>         0.1385
     34 H11        -1.0323    3.2458    0.0248 H         1 <0>         0.4366
     35 H12        -2.1311    1.6894    0.0219 H         1 <0>         0.4482
     36 H13         0.9407    3.9363    0.0134 H         1 <0>         0.4252
     37 H14         3.1479    4.5240   -0.0044 H         1 <0>         0.3586
     38 H15         3.5006    3.0025    0.8828 H         1 <0>         0.3336
@<TRIPOS>BOND
     1    1    2 1
     2    1   24 1
     3    1   25 1
     4    1   26 1
     5    2    3 1
     6    3    4 1
     7    3   27 1
     8    3   28 1
     9    4    5 1
    10    4   29 1
    11    4   30 1
    12    5    6 1
    13    6   10 1
    14    6    7 2
    15    7    8 1
    16    8    9 2
    17    9   10 1
    18    9   11 1
    19   11   12 am
    20   11   31 1
    21   12   13 2
    22   12   14 1
    23   14   15 1
    24   14   32 1
    25   14   33 1
    26   15   16 1
    27   16   20 1
    28   16   17 2
    29   17   18 1
    30   18   19 2
    31   19   20 1
    32   19   22 1
    33   20   21 1
    34   21   34 1
    35   21   35 1
    36   22   23 1
    37   22   36 1
    38   23   37 1
    39   23   38 1
@<TRIPOS>MOLECULE
ZINC17040719
   47    49     0     0     0
SMALL
USER_CHARGES

@<TRIPOS>ATOM
      1 C1          1.2115    1.3879    0.1346 C.3       1 <0>        -0.1133
      2 C2          0.9177   -0.0897    0.0946 C.ar      1 <0>        -0.1059
      3 C3          1.0284   -0.7849   -1.0979 C.ar      1 <0>        -0.0594
      4 C4          0.7626   -2.1381   -1.1501 C.ar      1 <0>        -0.1105
      5 C5          0.3788   -2.8190    0.0003 C.ar      1 <0>         0.1623
      6 C6          0.2681   -2.1119    1.2044 C.ar      1 <0>        -0.1084
      7 C7          0.5439   -0.7498    1.2480 C.ar      1 <0>        -0.0358
      8 C8         -0.1512   -3.0955    2.2298 C.2       1 <0>         0.1174
      9 N1         -0.3770   -2.8750    3.5030 N.2       1 <0>        -0.1903
     10 N2         -0.7702   -3.9293    4.3376 N.pl3     1 <0>        -0.5290
     11 C9         -1.0022   -3.7028    5.6457 C.2       1 <0>         0.5950
     12 S1         -1.4826   -4.9912    6.6656 S.2       1 <0>        -0.5895
     13 N3         -0.8560   -2.4619    6.1510 N.pl3     1 <0>        -0.7825
     14 C10        -0.2603   -4.3772    1.5066 C.2       1 <0>         0.5245
     15 O1         -0.5821   -5.4470    1.9895 O.2       1 <0>        -0.4320
     16 N4          0.0585   -4.1540    0.2203 N.am      1 <0>        -0.5527
     17 C11         0.0671   -5.1866   -0.8188 C.3       1 <0>         0.3180
     18 H1          1.0917   -5.3661   -1.1445 H         1 <0>         0.1433
     19 C12        -0.5242   -6.4819   -0.2563 C.3       1 <0>         0.0963
     20 H2         -0.4810   -7.2621   -1.0162 H         1 <0>         0.0935
     21 C13        -1.9824   -6.2369    0.1436 C.3       1 <0>         0.0344
     22 H3         -2.0223   -5.4922    0.9386 H         1 <0>         0.0876
     23 C14        -2.7559   -5.7264   -1.0760 C.3       1 <0>         0.0413
     24 H4         -3.7815   -5.4969   -0.7870 H         1 <0>         0.0720
     25 C15        -2.0785   -4.4603   -1.6069 C.3       1 <0>         0.0991
     26 H5         -2.1129   -3.6825   -0.8441 H         1 <0>         0.0806
     27 O2         -0.7169   -4.7501   -1.9310 O.3       1 <0>        -0.3360
     28 C16        -2.8101   -3.9778   -2.8610 C.3       1 <0>         0.0902
     29 O3         -2.2517   -2.7341   -3.2893 O.3       1 <0>        -0.5646
     30 O4         -2.7597   -6.7299   -2.0934 O.3       1 <0>        -0.5442
     31 O5         -2.5637   -7.4586    0.6034 O.3       1 <0>        -0.5512
     32 O6          0.2246   -6.8901    0.8903 O.3       1 <0>        -0.5318
     33 H6          2.2690    1.5424    0.3485 H         1 <0>         0.0737
     34 H7          0.9670    1.8332   -0.8298 H         1 <0>         0.0709
     35 H8          0.6108    1.8568    0.9140 H         1 <0>         0.0686
     36 H9          1.3252   -0.2631   -1.9957 H         1 <0>         0.1380
     37 H10         0.8525   -2.6694   -2.0861 H         1 <0>         0.1415
     38 H11         0.4618   -0.2096    2.1795 H         1 <0>         0.1357
     39 H12        -0.8754   -4.8224    3.9739 H         1 <0>         0.4363
     40 H13        -0.5838   -1.7319    5.5732 H         1 <0>         0.4086
     41 H14        -1.0230   -2.2989    7.0926 H         1 <0>         0.4347
     42 H15        -2.6995   -4.7178   -3.6536 H         1 <0>         0.0693
     43 H16        -3.8678   -3.8425   -2.6352 H         1 <0>         0.0614
     44 H17        -2.6681   -2.3681   -4.0816 H         1 <0>         0.3844
     45 H18        -3.1709   -7.5623   -1.8232 H         1 <0>         0.3849
     46 H19        -3.4885   -7.3769    0.8738 H         1 <0>         0.3838
     47 H20        -0.0954   -7.7060    1.2990 H         1 <0>         0.3899
@<TRIPOS>BOND
     1    1    2 1
     2    1   33 1
     3    1   34 1
     4    1   35 1
     5    2    7 ar
     6    2    3 ar
     7    3    4 ar
     8    3   36 1
     9    4    5 ar
    10    4   37 1
    11    5   16 1
    12    5    6 ar
    13    6    7 ar
    14    6    8 1
    15    7   38 1
    16    8    9 2
    17    8   14 1
    18    9   10 1
    19   10   11 1
    20   10   39 1
    21   11   12 2
    22   11   13 1
    23   13   40 1
    24   13   41 1
    25   14   15 2
    26   14   16 am
    27   16   17 1
    28   17   18 1
    29   17   27 1
    30   17   19 1
    31   19   20 1
    32   19   21 1
    33   19   32 1
    34   21   22 1
    35   21   23 1
    36   21   31 1
    37   23   24 1
    38   23   25 1
    39   23   30 1
    40   25   26 1
    41   25   27 1
    42   25   28 1
    43   28   29 1
    44   28   42 1
    45   28   43 1
    46   29   44 1
    47   30   45 1
    48   31   46 1
    49   32   47 1
@<TRIPOS>MOLECULE
ZINC40757483
   39    41     0     0     0
SMALL
USER_CHARGES

@<TRIPOS>ATOM
      1 C1          0.0868    1.3049    1.4453 C.ar      1 <0>        -0.1545
      2 C2          1.2652    2.0212    1.3418 C.ar      1 <0>        -0.0636
      3 C3          2.4575    1.3628    1.1138 C.ar      1 <0>        -0.1686
      4 C4          2.4723   -0.0206    0.9882 C.ar      1 <0>         0.1925
      5 C5          1.2867   -0.7370    1.0927 C.ar      1 <0>        -0.1949
      6 C6          0.0979   -0.0723    1.3208 C.ar      1 <0>        -0.0674
      7 N1          3.6764   -0.6896    0.7571 N.pl3     1 <0>        -0.5352
      8 N2          3.6894   -2.0848    0.6307 N.pl3     1 <0>        -0.4506
      9 C7          4.8875   -2.7505    0.4008 C.ar      1 <0>         0.4437
     10 C8          4.9121   -4.1403    0.2674 C.ar      1 <0>         0.0556
     11 C9          6.1422   -4.7585    0.0374 C.ar      1 <0>         0.4076
     12 N3          7.2368   -4.0055   -0.0455 N.ar      1 <0>        -0.5380
     13 C10         7.1697   -2.6964    0.0863 C.ar      1 <0>         0.3984
     14 N4          6.0282   -2.0729    0.2988 N.ar      1 <0>        -0.5140
     15 N5          6.2230   -6.1395   -0.1026 N.pl3     1 <0>        -0.6456
     16 C11         7.4715   -6.7583   -0.2235 C.ar      1 <0>         0.0893
     17 C12         7.8456   -7.3409   -1.4274 C.ar      1 <0>        -0.0759
     18 C13         9.0792   -7.9509   -1.5444 C.ar      1 <0>        -0.0874
     19 C14         9.9427   -7.9826   -0.4633 C.ar      1 <0>        -0.0063
     20 C15         9.5733   -7.4035    0.7379 C.ar      1 <0>        -0.0866
     21 C16         8.3426   -6.7863    0.8591 C.ar      1 <0>        -0.0408
     22 Cl1         7.8825   -6.0531    2.3640 Cl        1 <0>        -0.0327
     23 Cl2        11.4921   -8.7508   -0.6144 Cl        1 <0>        -0.0214
     24 N6          3.7319   -4.8951    0.3625 N.pl3     1 <0>        -0.8527
     25 H1         -0.8437    1.8219    1.6281 H         1 <0>         0.1296
     26 H2          1.2529    3.0967    1.4392 H         1 <0>         0.1344
     27 H3          3.3774    1.9228    1.0327 H         1 <0>         0.1311
     28 H4          1.2947   -1.8125    0.9952 H         1 <0>         0.1093
     29 H5         -0.8241   -0.6287    1.4025 H         1 <0>         0.1300
     30 H6          4.5035   -0.1882    0.6840 H         1 <0>         0.4425
     31 H7          2.8623   -2.5862    0.7038 H         1 <0>         0.4420
     32 H8          8.0775   -2.1159    0.0139 H         1 <0>         0.2471
     33 H9          5.4135   -6.6738   -0.1163 H         1 <0>         0.4386
     34 H10         7.1722   -7.3174   -2.2715 H         1 <0>         0.1568
     35 H11         9.3702   -8.4040   -2.4805 H         1 <0>         0.1590
     36 H12        10.2488   -7.4303    1.5802 H         1 <0>         0.1612
     37 H13         2.8842   -4.4518    0.5229 H         1 <0>         0.4119
     38 H14         3.7643   -5.8600    0.2677 H         1 <0>         0.4115
     39 H15         8.0960   -4.4266   -0.2048 H         1 <0>         0.4438
@<TRIPOS>BOND
     1    1    6 ar
     2    1    2 ar
     3    1   25 1
     4    2    3 ar
     5    2   26 1
     6    3    4 ar
     7    3   27 1
     8    4    5 ar
     9    4    7 1
    10    5    6 ar
    11    5   28 1
    12    6   29 1
    13    7    8 1
    14    7   30 1
    15    8    9 1
    16    8   31 1
    17    9   14 ar
    18    9   10 ar
    19   10   11 ar
    20   10   24 1
    21   11   12 ar
    22   11   15 1
    23   12   13 ar
    24   12   39 1
    25   13   14 ar
    26   13   32 1
    27   15   16 1
    28   15   33 1
    29   16   21 ar
    30   16   17 ar
    31   17   18 ar
    32   17   34 1
    33   18   19 ar
    34   18   35 1
    35   19   20 ar
    36   19   23 1
    37   20   21 ar
    38   20   36 1
    39   21   22 1
    40   24   37 1
    41   24   38 1
@<TRIPOS>MOLECULE
ZINC63686320
   47    50     0     0     0
SMALL
USER_CHARGES

@<TRIPOS>ATOM
      1 C1         -0.0167    1.3786    0.0096 C.ar      1 <0>        -0.1578
      2 C2          1.1695    2.0894    0.0021 C.ar      1 <0>        -0.0750
      3 C3          2.3774    1.4200   -0.0130 C.ar      1 <0>        -0.1732
      4 C4          2.3998    0.0311   -0.0206 C.ar      1 <0>         0.1938
      5 C5          1.2064   -0.6798   -0.0130 C.ar      1 <0>        -0.1810
      6 C6          0.0021   -0.0041    0.0020 C.ar      1 <0>        -0.0750
      7 N1          3.6196   -0.6492   -0.0363 N.pl3     1 <0>        -0.7119
      8 C7          3.6414   -2.1140   -0.0443 C.3       1 <0>         0.4111
      9 H1          2.9272   -2.5229    0.6703 H         1 <0>         0.1412
     10 N2          5.0173   -2.6395    0.1994 N.3       1 <0>        -0.6599
     11 C8          5.1879   -4.0072   -0.2963 C.3       1 <0>         0.0488
     12 H2          4.9034   -4.7018    0.4941 H         1 <0>         0.1390
     13 C9          4.3515   -4.3241   -1.5561 C.3       1 <0>         0.1816
     14 H3          3.7070   -5.1872   -1.3895 H         1 <0>         0.1556
     15 S1          3.3541   -2.7832   -1.7428 S.3       1 <0>        -0.3607
     16 N3          5.2158   -4.5353   -2.7199 N.am      1 <0>        -0.6886
     17 C10         4.9884   -5.5735   -3.5487 C.2       1 <0>         0.5328
     18 O1          4.0682   -6.3329   -3.3310 O.2       1 <0>        -0.4829
     19 C11         5.8775   -5.7908   -4.7459 C.3       1 <0>         0.0675
     20 H4          6.9104   -5.9285   -4.4262 H         1 <0>         0.2048
     21 C12         5.7767   -4.6140   -5.6905 C.2       1 <0>         0.0425
     22 C13         5.3080   -5.1099   -6.8582 C.ar      1 <0>        -0.1417
     23 C14         4.9965   -4.4857   -8.1496 C.ar      1 <0>        -0.0070
     24 C15         4.5310   -5.2597   -9.1574 C.ar      1 <0>        -0.0726
     25 C16         4.3394   -6.6403   -8.9984 C.ar      1 <0>         0.0635
     26 C17         4.6033   -7.2843   -7.8421 C.ar      1 <0>        -0.1878
     27 C18         5.0970   -6.5684   -6.7166 C.ar      1 <0>         0.3428
     28 N4          5.4237   -6.9599   -5.5073 N.pl3     1 <0>        -0.5535
     29 Cl1         4.1608   -4.5251  -10.6862 Cl        1 <0>        -0.0067
     30 C19         6.6432   -4.2226   -0.6227 C.2       1 <0>         0.5227
     31 O2          7.3762   -3.2697   -0.7832 O.2       1 <0>        -0.5197
     32 N5          7.1303   -5.4741   -0.7364 N.am      1 <0>        -0.8452
     33 H5         -0.9598    1.9046    0.0260 H         1 <0>         0.1243
     34 H6          1.1513    3.1692    0.0077 H         1 <0>         0.1274
     35 H7          3.3034    1.9757   -0.0192 H         1 <0>         0.1240
     36 H8          1.2204   -1.7597   -0.0193 H         1 <0>         0.1211
     37 H9         -0.9261   -0.5561    0.0079 H         1 <0>         0.1256
     38 H10         4.4523   -0.1517   -0.0419 H         1 <0>         0.4107
     39 H11         5.7142   -2.0236   -0.1918 H         1 <0>         0.3749
     40 H12         5.9518   -3.9279   -2.8940 H         1 <0>         0.4156
     41 H13         6.0277   -3.5858   -5.4759 H         1 <0>         0.2192
     42 H14         5.1364   -3.4245   -8.2933 H         1 <0>         0.1775
     43 H15         3.9651   -7.2110   -9.8354 H         1 <0>         0.1754
     44 H16         4.4387   -8.3494   -7.7710 H         1 <0>         0.1758
     45 H17         6.5441   -6.2362   -0.6081 H         1 <0>         0.4061
     46 H18         8.0671   -5.6127   -0.9465 H         1 <0>         0.4116
     47 H19         5.3735   -7.8689   -5.1724 H         1 <0>         0.4635
@<TRIPOS>BOND
     1    1    6 ar
     2    1    2 ar
     3    1   33 1
     4    2    3 ar
     5    2   34 1
     6    3    4 ar
     7    3   35 1
     8    4    5 ar
     9    4    7 1
    10    5    6 ar
    11    5   36 1
    12    6   37 1
    13    7    8 1
    14    7   38 1
    15    8    9 1
    16    8   15 1
    17    8   10 1
    18   10   11 1
    19   10   39 1
    20   11   12 1
    21   11   13 1
    22   11   30 1
    23   13   14 1
    24   13   15 1
    25   13   16 1
    26   16   17 am
    27   16   40 1
    28   17   18 2
    29   17   19 1
    30   19   20 1
    31   19   28 1
    32   19   21 1
    33   21   22 2
    34   21   41 1
    35   22   27 ar
    36   22   23 ar
    37   23   24 ar
    38   23   42 1
    39   24   25 ar
    40   24   29 1
    41   25   26 ar
    42   25   43 1
    43   26   27 ar
    44   26   44 1
    45   27   28 2
    46   28   47 1
    47   30   31 2
    48   30   32 am
    49   32   45 1
    50   32   46 1
@<TRIPOS>MOLECULE
ZINC11666642
   54    57     0     0     0
SMALL
USER_CHARGES
5-hydroxy-7-methoxy-3-[4-[(2R,3S,4R,5S,6R)-3,4,5-trihydroxy-6-(hydroxymethyl)tetrahydropyran-2-yl]oxyphenyl]chromen-4-one
@<TRIPOS>ATOM
      1 C1         -0.0127    1.0858    0.0080 C.3       1 <0>         0.0220
      2 O1         -0.6816    1.5467    1.1837 O.3       1 <0>        -0.3033
      3 C2         -0.1494    1.1825    2.3782 C.ar      1 <0>         0.2101
      4 C3          0.9969    0.3952    2.4094 C.ar      1 <0>        -0.2694
      5 C4          1.5470    0.0193    3.6204 C.ar      1 <0>         0.2425
      6 C5          0.9412    0.4374    4.8128 C.ar      1 <0>        -0.2895
      7 C6         -0.2175    1.2333    4.7798 C.ar      1 <0>         0.2035
      8 C7         -0.7506    1.6039    3.5534 C.ar      1 <0>        -0.1928
      9 O2         -0.7984    1.6353    5.9280 O.3       1 <0>        -0.2170
     10 C8         -0.3295    1.3164    7.1376 C.2       1 <0>         0.1222
     11 C9          0.7803    0.5549    7.3131 C.2       1 <0>        -0.2308
     12 C10         1.4946    0.0600    6.1229 C.2       1 <0>         0.4292
     13 O3          2.4964   -0.6283    6.2192 O.2       1 <0>        -0.4382
     14 C11         1.2643    0.2266    8.6762 C.ar      1 <0>        -0.0629
     15 C12         1.5508   -1.0944    9.0163 C.ar      1 <0>        -0.0467
     16 C13         2.0061   -1.3958   10.2829 C.ar      1 <0>        -0.1858
     17 C14         2.1682   -0.3866   11.2221 C.ar      1 <0>         0.1340
     18 C15         1.8783    0.9292   10.8883 C.ar      1 <0>        -0.1448
     19 C16         1.4280    1.2377    9.6216 C.ar      1 <0>        -0.0758
     20 O4          2.6120   -0.6874   12.4710 O.3       1 <0>        -0.3080
     21 C17         2.8913   -2.0614   12.7468 C.3       1 <0>         0.2141
     22 H1          2.0430   -2.6734   12.4403 H         1 <0>         0.1122
     23 C18         3.1355   -2.2415   14.2474 C.3       1 <0>         0.0595
     24 H2          2.2647   -1.8926   14.8025 H         1 <0>         0.0833
     25 C19         4.3651   -1.4256   14.6582 C.3       1 <0>         0.0830
     26 H3          4.5779   -1.5935   15.7140 H         1 <0>         0.0750
     27 C20         5.5646   -1.8715   13.8165 C.3       1 <0>         0.0943
     28 H4          5.7868   -2.9181   14.0247 H         1 <0>         0.0859
     29 C21         5.2267   -1.7057   12.3326 C.3       1 <0>         0.1054
     30 H5          5.0442   -0.6530   12.1167 H         1 <0>         0.0903
     31 O5          4.0562   -2.4653   12.0242 O.3       1 <0>        -0.3571
     32 C22         6.3974   -2.2053   11.4837 C.3       1 <0>         0.0874
     33 O6          6.1307   -1.9452   10.1041 O.3       1 <0>        -0.5624
     34 O7          6.7015   -1.0685   14.1400 O.3       1 <0>        -0.5481
     35 O8          4.1139   -0.0368   14.4344 O.3       1 <0>        -0.5263
     36 O9          3.3624   -3.6234   14.5318 O.3       1 <0>        -0.5389
     37 O10         2.6650   -0.7492    3.6544 O.3       1 <0>        -0.4747
     38 H6          0.0021   -0.0041    0.0020 H         1 <0>         0.0629
     39 H7          1.0099    1.4631    0.0003 H         1 <0>         0.0624
     40 H8         -0.5399    1.4469   -0.8751 H         1 <0>         0.1085
     41 H9          1.4580    0.0773    1.4860 H         1 <0>         0.1485
     42 H10        -1.6379    2.2183    3.5147 H         1 <0>         0.1551
     43 H11        -0.8536    1.6787    8.0096 H         1 <0>         0.2038
     44 H12         1.4206   -1.8807    8.2874 H         1 <0>         0.1244
     45 H13         2.2328   -2.4185   10.5456 H         1 <0>         0.1319
     46 H14         2.0050    1.7121   11.6213 H         1 <0>         0.1330
     47 H15         1.2030    2.2617    9.3624 H         1 <0>         0.1299
     48 H16         7.3091   -1.6874   11.7814 H         1 <0>         0.0714
     49 H17         6.5233   -3.2776   11.6335 H         1 <0>         0.0512
     50 H18         6.8326   -2.2364    9.5061 H         1 <0>         0.3807
     51 H19         6.9721   -1.1250   15.0666 H         1 <0>         0.3832
     52 H20         3.3657    0.3136   14.9371 H         1 <0>         0.3792
     53 H21         2.6247   -4.2007   14.2919 H         1 <0>         0.3887
     54 H22         3.4894   -0.2439    3.6628 H         1 <0>         0.4039
@<TRIPOS>BOND
     1    1    2 1
     2    1   38 1
     3    1   39 1
     4    1   40 1
     5    2    3 1
     6    3    8 ar
     7    3    4 ar
     8    4    5 ar
     9    4   41 1
    10    5    6 ar
    11    5   37 1
    12    6   12 1
    13    6    7 ar
    14    7    8 ar
    15    7    9 1
    16    8   42 1
    17    9   10 1
    18   10   11 2
    19   10   43 1
    20   11   12 1
    21   11   14 1
    22   12   13 2
    23   14   19 ar
    24   14   15 ar
    25   15   16 ar
    26   15   44 1
    27   16   17 ar
    28   16   45 1
    29   17   18 ar
    30   17   20 1
    31   18   19 ar
    32   18   46 1
    33   19   47 1
    34   20   21 1
    35   21   22 1
    36   21   31 1
    37   21   23 1
    38   23   24 1
    39   23   25 1
    40   23   36 1
    41   25   26 1
    42   25   27 1
    43   25   35 1
    44   27   28 1
    45   27   29 1
    46   27   34 1
    47   29   30 1
    48   29   31 1
    49   29   32 1
    50   32   33 1
    51   32   48 1
    52   32   49 1
    53   33   50 1
    54   34   51 1
    55   35   52 1
    56   36   53 1
    57   37   54 1
@<TRIPOS>MOLECULE
ZINC16273725
   33    34     0     0     0
SMALL
USER_CHARGES
3-[(4-amino-3,5,6-trichloro-pyridine-2-carbonyl)amino]-1-(2,4-dichlorophenyl)thiourea
@<TRIPOS>ATOM
      1 C1          1.4085   -0.2947   -0.9492 C.ar      1 <0>        -0.0935
      2 C2          0.2002    0.3749   -0.9280 C.ar      1 <0>        -0.0514
      3 C3         -0.0164    1.3847   -0.0006 C.ar      1 <0>         0.1517
      4 C4          0.9838    1.7195    0.9047 C.ar      1 <0>        -0.0317
      5 C5          2.1903    1.0465    0.8789 C.ar      1 <0>        -0.0960
      6 C6          2.4027    0.0401   -0.0473 C.ar      1 <0>        -0.0193
      7 Cl1         3.9194   -0.8040   -0.0768 Cl        1 <0>        -0.0514
      8 Cl2         0.7177    2.9822    2.0660 Cl        1 <0>        -0.0497
      9 N1         -1.2378    2.0686    0.0192 N.pl3     1 <0>        -0.6457
     10 C7         -2.3948    1.3847   -0.0808 C.2       1 <0>         0.5645
     11 S1         -2.3791   -0.3272   -0.0904 S.2       1 <0>        -0.5713
     12 N2         -3.5642    2.0483   -0.1732 N.pl3     1 <0>        -0.4670
     13 N3         -3.5771    3.4493   -0.1653 N.am      1 <0>        -0.5400
     14 C8         -4.7464    4.1130   -0.2577 C.2       1 <0>         0.5832
     15 O1         -5.7897    3.4962   -0.3478 O.2       1 <0>        -0.4888
     16 C9         -4.7601    5.5932   -0.2493 C.ar      1 <0>         0.1566
     17 C10        -5.9709    6.2719   -0.3509 C.ar      1 <0>        -0.1104
     18 C11        -5.9669    7.6674   -0.3367 C.ar      1 <0>         0.2982
     19 C12        -4.7423    8.3245   -0.2314 C.ar      1 <0>        -0.1431
     20 C13        -3.5785    7.5777   -0.1395 C.ar      1 <0>         0.2330
     21 N4         -3.6153    6.2615   -0.1505 N.ar      1 <0>        -0.4844
     22 Cl3        -2.0497    8.3894   -0.0074 Cl        1 <0>         0.0136
     23 Cl4        -4.6756   10.0592   -0.2159 Cl        1 <0>        -0.0135
     24 N5         -7.1571    8.3858   -0.4310 N.pl3     1 <0>        -0.8548
     25 Cl5        -7.4635    5.3961   -0.4870 Cl        1 <0>         0.0076
     26 H1          1.5772   -1.0802   -1.6710 H         1 <0>         0.1479
     27 H2         -0.5752    0.1131   -1.6327 H         1 <0>         0.1590
     28 H3          2.9681    1.3059    1.5819 H         1 <0>         0.1502
     29 H4         -1.2532    3.1642    0.1164 H         1 <0>         0.4233
     30 H5         -4.5085    1.4900   -0.2548 H         1 <0>         0.4945
     31 H6         -2.6328    4.0076   -0.0837 H         1 <0>         0.4519
     32 H7         -7.1382    9.4856   -0.4185 H         1 <0>         0.4383
     33 H8         -8.1156    7.8532   -0.5180 H         1 <0>         0.4386
@<TRIPOS>BOND
     1    1    6 ar
     2    1    2 ar
     3    1   26 1
     4    2    3 ar
     5    2   27 1
     6    3    4 ar
     7    3    9 1
     8    4    5 ar
     9    4    8 1
    10    5    6 ar
    11    5   28 1
    12    6    7 1
    13    9   10 1
    14    9   29 1
    15   10   11 2
    16   10   12 1
    17   12   13 1
    18   12   30 1
    19   13   14 am
    20   13   31 1
    21   14   15 2
    22   14   16 1
    23   16   21 ar
    24   16   17 ar
    25   17   18 ar
    26   17   25 1
    27   18   19 ar
    28   18   24 1
    29   19   20 ar
    30   19   23 1
    31   20   21 ar
    32   20   22 1
    33   24   32 1
    34   24   33 1
@<TRIPOS>MOLECULE
ZINC13827607
   77    80     0     0     0
SMALL
USER_CHARGES

@<TRIPOS>ATOM
      1 C1         -0.1674    1.4107    0.0725 C.3       1 <0>        -0.1599
      2 C2          0.0013   -0.1089    0.0154 C.3       1 <0>        -0.1179
      3 H1          0.4797   -0.3863   -0.9239 H         1 <0>         0.0773
      4 C3          0.8704   -0.5693    1.1853 C.3       1 <0>        -0.0637
      5 H2          0.4135   -0.3302    2.1391 H         1 <0>         0.0844
      6 C4          1.1925   -2.0863    1.0711 C.3       1 <0>        -0.0983
      7 C5          2.6645   -2.2489    1.5387 C.3       1 <0>        -0.1488
      8 C6          3.0360   -0.8623    2.0704 C.3       1 <0>         0.1616
      9 C7          2.2777    0.0637    1.0843 C.3       1 <0>        -0.0433
     10 C8          2.3843    1.4995    1.5086 C.3       1 <0>        -0.1027
     11 C9          3.7924    1.8650    2.0064 C.3       1 <0>        -0.1079
     12 C10         4.8508    0.8671    1.5669 C.3       1 <0>        -0.0612
     13 H3          4.7844    0.8260    0.4745 H         1 <0>         0.0947
     14 C11         4.4890   -0.5059    2.0576 C.2       1 <0>        -0.0411
     15 C12         5.3902   -1.3826    2.4997 C.2       1 <0>        -0.2278
     16 C13         6.8028   -0.9760    2.5183 C.2       1 <0>         0.3962
     17 O1          7.7065   -1.7619    2.3289 O.2       1 <0>        -0.4440
     18 C14         7.0501    0.4934    2.7977 C.3       1 <0>        -0.1157
     19 H4          8.1181    0.7071    2.7033 H         1 <0>         0.1099
     20 C15         6.2706    1.3113    1.7758 C.3       1 <0>        -0.0300
     21 C16         6.3990    2.8027    2.0596 C.3       1 <0>        -0.0926
     22 C17         6.0338    3.1578    3.4961 C.3       1 <0>         0.0696
     23 H5          4.9702    3.0045    3.6675 H         1 <0>         0.0733
     24 C18         6.8354    2.3112    4.4861 C.3       1 <0>         0.0791
     25 H6          6.5215    2.5503    5.5032 H         1 <0>         0.0599
     26 C19         6.5788    0.8277    4.2113 C.3       1 <0>        -0.0990
     27 O2          8.2293    2.5925    4.3428 O.3       1 <0>        -0.5551
     28 O3          6.3324    4.5430    3.7250 O.3       1 <0>        -0.5681
     29 C20         6.9797    1.0802    0.4230 C.3       1 <0>        -0.1587
     30 C21         2.7350   -0.1248   -0.3640 C.3       1 <0>        -0.1550
     31 O4          2.5106   -0.7141    3.3993 O.3       1 <0>        -0.5396
     32 C22        -1.3716   -0.7782    0.1056 C.3       1 <0>         0.1115
     33 H7         -1.8500   -0.5008    1.0449 H         1 <0>         0.0937
     34 C23        -2.2416   -0.3173   -1.0655 C.3       1 <0>        -0.1523
     35 C24        -3.6527   -0.8875   -0.9079 C.3       1 <0>        -0.1390
     36 C25        -4.5227   -0.4266   -2.0790 C.3       1 <0>         0.1245
     37 C26        -5.9634   -0.8920   -1.8582 C.3       1 <0>        -0.1801
     38 C27        -4.4883    1.1003   -2.1700 C.3       1 <0>        -0.1428
     39 O5         -4.0218   -0.9876   -3.2941 O.3       1 <0>        -0.5606
     40 O6         -1.2140   -2.1975    0.0523 O.3       1 <0>        -0.5559
     41 H8          0.7844    1.8908   -0.1548 H         1 <0>         0.0672
     42 H9         -0.9145    1.7210   -0.6581 H         1 <0>         0.0580
     43 H10        -0.4924    1.7030    1.0710 H         1 <0>         0.0569
     44 H11         0.5326   -2.6579    1.7247 H         1 <0>         0.0713
     45 H12         1.0843   -2.4210    0.0432 H         1 <0>         0.0644
     46 H13         2.7239   -2.9832    2.3427 H         1 <0>         0.0686
     47 H14         3.3074   -2.5358    0.7126 H         1 <0>         0.0762
     48 H15         2.1275    2.1485    0.6635 H         1 <0>         0.0683
     49 H16         1.6631    1.6955    2.3105 H         1 <0>         0.0701
     50 H17         4.0460    2.8606    1.6399 H         1 <0>         0.0742
     51 H18         3.7664    1.8942    3.1025 H         1 <0>         0.0658
     52 H19         5.0862   -2.3609    2.8312 H         1 <0>         0.1379
     53 H20         7.4356    3.1094    1.8697 H         1 <0>         0.0797
     54 H21         5.7622    3.3623    1.3700 H         1 <0>         0.0774
     55 H22         5.5118    0.6219    4.3031 H         1 <0>         0.0867
     56 H23         7.1285    0.2248    4.9339 H         1 <0>         0.0773
     57 H24         8.4629    3.5165    4.5064 H         1 <0>         0.3814
     58 H25         6.1272    4.8470    4.6197 H         1 <0>         0.3784
     59 H26         6.4881    1.6702   -0.3504 H         1 <0>         0.0639
     60 H27         8.0234    1.3839    0.5034 H         1 <0>         0.0652
     61 H28         6.9280    0.0232    0.1616 H         1 <0>         0.0553
     62 H29         2.1128    0.4806   -1.0231 H         1 <0>         0.0696
     63 H30         3.7754    0.1859   -0.4599 H         1 <0>         0.0589
     64 H31         2.6425   -1.1751   -0.6404 H         1 <0>         0.0640
     65 H32         2.8634   -1.3515    4.0351 H         1 <0>         0.3757
     66 H33        -2.2889    0.7716   -1.0765 H         1 <0>         0.0788
     67 H34        -1.8090   -0.6718   -2.0011 H         1 <0>         0.0696
     68 H35        -3.6054   -1.9764   -0.8968 H         1 <0>         0.0704
     69 H36        -4.0853   -0.5330    0.0277 H         1 <0>         0.0686
     70 H37        -6.3454   -0.4641   -0.9313 H         1 <0>         0.0653
     71 H38        -6.5832   -0.5637   -2.6925 H         1 <0>         0.0633
     72 H39        -5.9879   -1.9798   -1.7934 H         1 <0>         0.0579
     73 H40        -3.4619    1.4319   -2.3273 H         1 <0>         0.0652
     74 H41        -5.1081    1.4286   -3.0043 H         1 <0>         0.0609
     75 H42        -4.8703    1.5282   -1.2431 H         1 <0>         0.0688
     76 H43        -4.0145   -1.9544   -3.3073 H         1 <0>         0.3747
     77 H44        -0.7938   -2.5164   -0.7581 H         1 <0>         0.3696
@<TRIPOS>BOND
     1    1    2 1
     2    1   41 1
     3    1   42 1
     4    1   43 1
     5    2    3 1
     6    2    4 1
     7    2   32 1
     8    4    5 1
     9    4    9 1
    10    4    6 1
    11    6    7 1
    12    6   44 1
    13    6   45 1
    14    7    8 1
    15    7   46 1
    16    7   47 1
    17    8   14 1
    18    8    9 1
    19    8   31 1
    20    9   10 1
    21    9   30 1
    22   10   11 1
    23   10   48 1
    24   10   49 1
    25   11   12 1
    26   11   50 1
    27   11   51 1
    28   12   13 1
    29   12   20 1
    30   12   14 1
    31   14   15 2
    32   15   16 1
    33   15   52 1
    34   16   17 2
    35   16   18 1
    36   18   19 1
    37   18   26 1
    38   18   20 1
    39   20   21 1
    40   20   29 1
    41   21   22 1
    42   21   53 1
    43   21   54 1
    44   22   23 1
    45   22   24 1
    46   22   28 1
    47   24   25 1
    48   24   26 1
    49   24   27 1
    50   26   55 1
    51   26   56 1
    52   27   57 1
    53   28   58 1
    54   29   59 1
    55   29   60 1
    56   29   61 1
    57   30   62 1
    58   30   63 1
    59   30   64 1
    60   31   65 1
    61   32   33 1
    62   32   34 1
    63   32   40 1
    64   34   35 1
    65   34   66 1
    66   34   67 1
    67   35   36 1
    68   35   68 1
    69   35   69 1
    70   36   37 1
    71   36   38 1
    72   36   39 1
    73   37   70 1
    74   37   71 1
    75   37   72 1
    76   38   73 1
    77   38   74 1
    78   38   75 1
    79   39   76 1
    80   40   77 1
@<TRIPOS>MOLECULE
ZINC39895245
   49    52     0     0     0
SMALL
USER_CHARGES

@<TRIPOS>ATOM
      1 C1         -1.1960   -0.8144   -0.2631 C.3       1 <0>        -0.1486
      2 C2          0.0209    0.0684    0.0211 C.3       1 <0>        -0.0867
      3 C3          0.7448   -0.4500    1.2369 C.ar      1 <0>        -0.0899
      4 C4          0.3992    0.0106    2.4942 C.ar      1 <0>        -0.0818
      5 C5          1.0605   -0.4624    3.6105 C.ar      1 <0>        -0.1473
      6 C6          2.0736   -1.4024    3.4693 C.ar      1 <0>         0.1346
      7 C7          2.4178   -1.8634    2.2049 C.ar      1 <0>        -0.1333
      8 C8          1.7492   -1.3897    1.0933 C.ar      1 <0>        -0.0872
      9 N1          2.7452   -1.8829    4.5969 N.pl3     1 <0>        -0.6085
     10 C9          2.0711   -2.0349    5.7861 C.2       1 <0>         0.2148
     11 C10         2.5843   -2.3817    7.0300 C.2       1 <0>        -0.2809
     12 C11         1.6539   -2.4803    8.1542 C.ar      1 <0>         0.2812
     13 C12         0.3106   -2.2051    7.8375 C.ar      1 <0>        -0.2579
     14 S1          0.3302   -1.8270    6.1047 S.3       1 <0>         0.1473
     15 C13        -0.6926   -2.2561    8.7930 C.ar      1 <0>         0.1538
     16 C14        -0.3286   -2.5970   10.1165 C.ar      1 <0>        -0.1427
     17 C15         1.0283   -2.8625   10.3783 C.ar      1 <0>         0.4842
     18 N2          1.9397   -2.7996    9.4353 N.ar      1 <0>        -0.5360
     19 N3          1.4132   -3.1991   11.6666 N.pl3     1 <0>        -0.8348
     20 C16        -1.3096   -2.6693   11.1572 C.1       1 <0>         0.2594
     21 N4         -2.0878   -2.7266   11.9827 N.1       1 <0>        -0.4033
     22 C17        -2.1001   -1.9626    8.4394 C.ar      1 <0>        -0.0736
     23 C18        -2.4625   -0.6854    8.0109 C.ar      1 <0>        -0.0778
     24 C19        -3.7753   -0.4175    7.6827 C.ar      1 <0>        -0.1066
     25 C20        -4.7326   -1.4135    7.7781 C.ar      1 <0>        -0.0207
     26 C21        -4.3786   -2.6829    8.2033 C.ar      1 <0>        -0.1065
     27 C22        -3.0676   -2.9637    8.5280 C.ar      1 <0>        -0.0763
     28 Cl1        -6.3829   -1.0693    7.3635 Cl        1 <0>        -0.0605
     29 C23         4.0119   -2.6409    7.2096 C.2       1 <0>         0.5979
     30 O1          4.7638   -1.7295    7.5040 O.2       1 <0>        -0.5302
     31 N5          4.4957   -3.8885    7.0492 N.am      1 <0>        -0.8461
     32 H1         -1.8674   -0.7949    0.5954 H         1 <0>         0.0569
     33 H2         -1.7195   -0.4394   -1.1425 H         1 <0>         0.0597
     34 H3         -0.8678   -1.8379   -0.4445 H         1 <0>         0.0561
     35 H4          0.6923    0.0489   -0.8373 H         1 <0>         0.0738
     36 H5         -0.3072    1.0919    0.2025 H         1 <0>         0.0744
     37 H6         -0.3885    0.7414    2.6032 H         1 <0>         0.1321
     38 H7          0.7906   -0.1017    4.5920 H         1 <0>         0.1350
     39 H8          3.2049   -2.5942    2.0917 H         1 <0>         0.1304
     40 H9          2.0138   -1.7504    0.1103 H         1 <0>         0.1312
     41 H10         3.6868   -2.1092    4.5408 H         1 <0>         0.4248
     42 H11         0.7506   -3.2491   12.3733 H         1 <0>         0.4117
     43 H12         2.3451   -3.3847   11.8615 H         1 <0>         0.4135
     44 H13        -1.7168    0.0923    7.9365 H         1 <0>         0.1400
     45 H14        -4.0571    0.5710    7.3512 H         1 <0>         0.1422
     46 H15        -5.1294   -3.4558    8.2765 H         1 <0>         0.1408
     47 H16        -2.7916   -3.9554    8.8546 H         1 <0>         0.1361
     48 H17         3.8967   -4.6146    6.8146 H         1 <0>         0.4019
     49 H18         5.4428   -4.0605    7.1683 H         1 <0>         0.4033
@<TRIPOS>BOND
     1    1    2 1
     2    1   32 1
     3    1   33 1
     4    1   34 1
     5    2    3 1
     6    2   35 1
     7    2   36 1
     8    3    8 ar
     9    3    4 ar
    10    4    5 ar
    11    4   37 1
    12    5    6 ar
    13    5   38 1
    14    6    7 ar
    15    6    9 1
    16    7    8 ar
    17    7   39 1
    18    8   40 1
    19    9   10 1
    20    9   41 1
    21   10   14 1
    22   10   11 2
    23   11   12 1
    24   11   29 1
    25   12   18 ar
    26   12   13 ar
    27   13   14 1
    28   13   15 ar
    29   15   16 ar
    30   15   22 1
    31   16   17 ar
    32   16   20 1
    33   17   18 ar
    34   17   19 1
    35   19   42 1
    36   19   43 1
    37   20   21 3
    38   22   27 ar
    39   22   23 ar
    40   23   24 ar
    41   23   44 1
    42   24   25 ar
    43   24   45 1
    44   25   26 ar
    45   25   28 1
    46   26   27 ar
    47   26   46 1
    48   27   47 1
    49   29   30 2
    50   29   31 am
    51   31   48 1
    52   31   49 1
@<TRIPOS>MOLECULE
ZINC01127478
   50    53     0     0     0
SMALL
USER_CHARGES

@<TRIPOS>ATOM
      1 C1         -0.1140    1.6372   -0.0086 C.3       1 <0>         0.0251
      2 O1         -0.0658    0.2116   -0.0947 O.3       1 <0>        -0.3006
      3 C2         -1.2556   -0.4470   -0.1027 C.ar      1 <0>         0.1112
      4 C3         -2.4431    0.2638   -0.0351 C.ar      1 <0>        -0.1597
      5 C4         -3.6517   -0.4072   -0.0438 C.ar      1 <0>        -0.0686
      6 C5         -3.6791   -1.7874   -0.1194 C.ar      1 <0>        -0.0961
      7 C6         -2.4980   -2.5026   -0.1867 C.ar      1 <0>        -0.1723
      8 C7         -1.2833   -1.8359   -0.1846 C.ar      1 <0>         0.0984
      9 O2         -0.1206   -2.5376   -0.2567 O.3       1 <0>        -0.2779
     10 C8         -0.2255   -3.9604   -0.3386 C.3       1 <0>         0.0384
     11 C9          1.1541   -4.5625   -0.4105 C.2       1 <0>         0.5185
     12 O3          2.1310   -3.8440   -0.3933 O.2       1 <0>        -0.5126
     13 N1          1.3023   -5.8995   -0.4939 N.am      1 <0>        -0.8516
     14 C10        -4.9423    0.3674    0.0298 C.3       1 <0>         0.1230
     15 H1         -4.7275    1.4288    0.1537 H         1 <0>         0.0966
     16 C11        -5.7647   -0.1241    1.1928 C.2       1 <0>        -0.2451
     17 C12        -5.5615    0.0660    2.5629 C.2       1 <0>         0.1570
     18 N2         -6.5359   -0.5480    3.2069 N.2       1 <0>        -0.2407
     19 N3         -7.3840   -1.1442    2.2608 N.pl3     1 <0>        -0.4408
     20 H2         -8.1819   -1.6605    2.4554 H         1 <0>         0.4507
     21 C13        -6.8949   -0.8723    1.0331 C.2       1 <0>         0.2796
     22 O4         -7.3695   -1.2309   -0.1860 O.3       1 <0>        -0.2282
     23 C14        -6.8566   -0.6052   -1.2648 C.2       1 <0>         0.4390
     24 C15        -5.7373    0.1532   -1.2341 C.2       1 <0>        -0.2550
     25 C16        -5.2897    0.7745   -2.4442 C.1       1 <0>         0.2687
     26 N4         -4.9347    1.2674   -3.4042 N.1       1 <0>        -0.4331
     27 N5         -7.5092   -0.7453   -2.4644 N.pl3     1 <0>        -0.8297
     28 C17        -4.4470    0.8247    3.1834 C.ar      1 <0>         0.0014
     29 C18        -4.0418    2.0418    2.6391 C.ar      1 <0>        -0.0776
     30 C19        -3.0051    2.7441    3.2190 C.ar      1 <0>        -0.0985
     31 C20        -2.3673    2.2416    4.3401 C.ar      1 <0>        -0.0207
     32 C21        -2.7660    1.0322    4.8854 C.ar      1 <0>        -0.0301
     33 C22        -3.8065    0.3251    4.3150 C.ar      1 <0>        -0.0666
     34 Cl1        -1.9616    0.4080    6.2915 Cl        1 <0>        -0.0404
     35 Cl2        -1.0634    3.1296    5.0647 Cl        1 <0>        -0.0415
     36 H3          0.9005    2.0358   -0.0115 H         1 <0>         0.1015
     37 H4         -0.6629    2.0344   -0.8625 H         1 <0>         0.0546
     38 H5         -0.6163    1.9287    0.9137 H         1 <0>         0.0557
     39 H6         -2.4245    1.3419    0.0248 H         1 <0>         0.1354
     40 H7         -4.6253   -2.3080   -0.1256 H         1 <0>         0.1186
     41 H8         -2.5221   -3.5808   -0.2453 H         1 <0>         0.1330
     42 H9         -0.7413   -4.3381    0.5442 H         1 <0>         0.0934
     43 H10        -0.7877   -4.2324   -1.2320 H         1 <0>         0.0930
     44 H11         0.5209   -6.4742   -0.5077 H         1 <0>         0.4027
     45 H12         2.1903   -6.2871   -0.5402 H         1 <0>         0.4096
     46 H13        -8.3151   -1.2823   -2.5183 H         1 <0>         0.4120
     47 H14        -7.1643   -0.3072   -3.2582 H         1 <0>         0.4288
     48 H15        -4.5383    2.4348    1.7642 H         1 <0>         0.1447
     49 H16        -2.6906    3.6872    2.7972 H         1 <0>         0.1496
     50 H17        -4.1203   -0.6155    4.7432 H         1 <0>         0.1476
@<TRIPOS>BOND
     1    1    2 1
     2    1   36 1
     3    1   37 1
     4    1   38 1
     5    2    3 1
     6    3    8 ar
     7    3    4 ar
     8    4    5 ar
     9    4   39 1
    10    5    6 ar
    11    5   14 1
    12    6    7 ar
    13    6   40 1
    14    7    8 ar
    15    7   41 1
    16    8    9 1
    17    9   10 1
    18   10   11 1
    19   10   42 1
    20   10   43 1
    21   11   12 2
    22   11   13 am
    23   13   44 1
    24   13   45 1
    25   14   15 1
    26   14   24 1
    27   14   16 1
    28   16   21 2
    29   16   17 1
    30   17   18 2
    31   17   28 1
    32   18   19 1
    33   19   20 1
    34   19   21 1
    35   21   22 1
    36   22   23 1
    37   23   24 2
    38   23   27 1
    39   24   25 1
    40   25   26 3
    41   27   46 1
    42   27   47 1
    43   28   33 ar
    44   28   29 ar
    45   29   30 ar
    46   29   48 1
    47   30   31 ar
    48   30   49 1
    49   31   32 ar
    50   31   35 1
    51   32   33 ar
    52   32   34 1
    53   33   50 1
@<TRIPOS>MOLECULE
ZINC05159425
   46    49     0     0     0
SMALL
USER_CHARGES
2-[2-amino-9-(1,4,5,6-tetrahydropyrimidin-2-yl)-3,5,7-triazabicyclo[4.3.0]nona-2,4,8,10-tetraen-7-yl]-5-(hydroxymethyl)tetrahydrofuran-3,4-diol
@<TRIPOS>ATOM
      1 C1          0.1111    4.4244   -0.4447 C.2       1 <0>         0.1490
      2 C2          1.1861    3.6437   -0.1521 C.2       1 <0>        -0.2370
      3 C3          2.3758    4.4829   -0.3565 C.ar      1 <0>        -0.2366
      4 C4          3.7584    4.2897   -0.2404 C.ar      1 <0>         0.4886
      5 N1          4.5645    5.3091   -0.5241 N.ar      1 <0>        -0.5781
      6 C5          4.0767    6.4737   -0.9111 C.ar      1 <0>         0.3805
      7 N2          2.7865    6.6964   -1.0385 N.ar      1 <0>        -0.5423
      8 C6          1.9008    5.7359   -0.7769 C.ar      1 <0>         0.3890
      9 N3          0.5332    5.6645   -0.8150 N.pl3     1 <0>        -0.4380
     10 C7         -0.3507    6.7677   -1.1998 C.3       1 <0>         0.2964
     11 H1         -0.0120    7.6997   -0.7474 H         1 <0>         0.1613
     12 C8         -0.4023    6.9040   -2.7377 C.3       1 <0>         0.0806
     13 H2         -0.5133    7.9496   -3.0250 H         1 <0>         0.1136
     14 C9         -1.6522    6.0920   -3.1449 C.3       1 <0>         0.0467
     15 H3         -1.3741    5.2646   -3.7976 H         1 <0>         0.0921
     16 C10        -2.2078    5.5611   -1.8048 C.3       1 <0>         0.0271
     17 H4         -1.8350    4.5553   -1.6113 H         1 <0>         0.0882
     18 O1         -1.7112    6.4817   -0.8088 O.3       1 <0>        -0.3218
     19 C11        -3.7377    5.5667   -1.8229 C.3       1 <0>         0.0765
     20 O2         -4.2305    4.9654   -0.6239 O.3       1 <0>        -0.5699
     21 O3         -2.6110    6.9362   -3.7852 O.3       1 <0>        -0.5437
     22 O4          0.7723    6.3455   -3.3297 O.3       1 <0>        -0.5397
     23 N4          4.2725    3.0708    0.1653 N.pl3     1 <0>        -0.8336
     24 C12         1.1625    2.2364    0.2889 C.cat     1 <0>         0.6122
     25 C13         0.4013    0.5704    1.8841 C.3       1 <0>         0.0665
     26 C14         0.7626   -0.4601    0.8122 C.3       1 <0>        -0.1585
     27 C15         2.0817   -0.0328    0.1513 C.3       1 <0>         0.0761
     28 N5          1.8677    1.2989   -0.4363 N.pl3     1 <0>        -0.6610
     29 H5         -0.9203    4.1083   -0.3915 H         1 <0>         0.1953
     30 H6          4.7650    7.2762   -1.1317 H         1 <0>         0.2118
     31 H7         -4.0965    6.5939   -1.8883 H         1 <0>         0.0753
     32 H8         -4.0929    5.0022   -2.6850 H         1 <0>         0.0674
     33 H9         -5.1953    4.9348   -0.5671 H         1 <0>         0.3937
     34 H10        -3.4161    6.4776   -4.0619 H         1 <0>         0.3888
     35 H11         0.7924    6.4042   -4.2947 H         1 <0>         0.3958
     36 H12         5.2259    2.9718    0.3141 H         1 <0>         0.4183
     37 H13         3.6795    2.3152    0.3009 H         1 <0>         0.3973
     38 H14        -0.6134    0.3828    2.2354 H         1 <0>         0.1182
     39 H15         1.0940    0.4768    2.7205 H         1 <0>         0.1105
     40 H16        -0.0270   -0.5003    0.0618 H         1 <0>         0.0960
     41 H17         0.8844   -1.4405    1.2729 H         1 <0>         0.1303
     42 H18         2.3520   -0.7433   -0.6298 H         1 <0>         0.1269
     43 H19         2.8736    0.0149    0.8988 H         1 <0>         0.1026
     44 H20         2.2190    1.5145   -1.3144 H         1 <0>         0.4459
     45 N6          0.4334    1.9946    1.3875 N.pl3     1 <0>        -0.6269
     46 H21        -0.0790    2.7433    1.8683 H         1 <0>         0.4683
@<TRIPOS>BOND
     1    1    9 1
     2    1    2 2
     3    1   29 1
     4    2    3 1
     5    2   24 1
     6    3    8 ar
     7    3    4 ar
     8    4    5 ar
     9    4   23 1
    10    5    6 ar
    11    6    7 ar
    12    6   30 1
    13    7    8 ar
    14    8    9 1
    15    9   10 1
    16   10   11 1
    17   10   18 1
    18   10   12 1
    19   12   13 1
    20   12   14 1
    21   12   22 1
    22   14   15 1
    23   14   16 1
    24   14   21 1
    25   16   17 1
    26   16   18 1
    27   16   19 1
    28   19   20 1
    29   19   31 1
    30   19   32 1
    31   20   33 1
    32   21   34 1
    33   22   35 1
    34   23   36 1
    35   23   37 1
    36   24   28 1
    37   24   45 2
    38   25   26 1
    39   25   38 1
    40   25   39 1
    41   25   45 1
    42   26   27 1
    43   26   40 1
    44   26   41 1
    45   27   28 1
    46   27   42 1
    47   27   43 1
    48   28   44 1
    49   45   46 1
@<TRIPOS>MOLECULE
ZINC04377411
   51    51     0     0     0
SMALL
USER_CHARGES
[3,5-bis(carbamimidoylsulfanylmethyl)-2,4,6-trimethyl-phenyl]methylsulfanylformamidine
@<TRIPOS>ATOM
      1 C1          0.7359    3.6087    1.2009 C.3       1 <0>        -0.1493
      2 C2         -0.3599    2.7788    1.8186 C.ar      1 <0>         0.0073
      3 C3         -1.0102    3.2269    2.9532 C.ar      1 <0>        -0.1037
      4 C4         -2.0119    2.4633    3.5227 C.ar      1 <0>         0.0074
      5 C5         -2.3662    1.2536    2.9553 C.ar      1 <0>        -0.1038
      6 C6         -1.7194    0.8079    1.8177 C.ar      1 <0>         0.0073
      7 C7         -0.7181    1.5718    1.2479 C.ar      1 <0>        -0.1038
      8 C8         -0.0127    1.0858    0.0080 C.3       1 <0>        -0.1211
      9 S1         -0.8881    1.6854   -1.4584 S.3       1 <0>         0.0685
     10 C9          0.1221    0.9900   -2.7235 C.cat     1 <0>         0.4804
     11 N1          1.1649    0.2740   -2.4055 N.pl3     1 <0>        -0.7874
     12 N2         -0.1891    1.2022   -4.0466 N.pl3     1 <0>        -0.7950
     13 C10        -2.1056   -0.5108    1.1991 C.3       1 <0>        -0.1494
     14 C11        -3.4578    0.4208    3.5765 C.3       1 <0>        -0.1207
     15 S2         -2.7369   -0.7072    4.7948 S.3       1 <0>         0.0664
     16 C12        -4.1926   -1.5325    5.3465 C.cat     1 <0>         0.4808
     17 N3         -5.3527   -1.2166    4.8410 N.pl3     1 <0>        -0.7870
     18 N4         -4.1055   -2.5102    6.3103 N.pl3     1 <0>        -0.7952
     19 C13        -2.7173    2.9493    4.7626 C.3       1 <0>        -0.1494
     20 C14        -0.6237    4.5455    3.5721 C.3       1 <0>        -0.1207
     21 S3          0.6885    4.2788    4.7899 S.3       1 <0>         0.0664
     22 C15         0.9376    5.9344    5.3388 C.cat     1 <0>         0.4807
     23 N5          0.2264    6.9034    4.8323 N.pl3     1 <0>        -0.7870
     24 N6          1.8822    6.2051    6.3016 N.pl3     1 <0>        -0.7953
     25 H1          0.8774    4.5265    1.7905 H         1 <0>         0.0785
     26 H2          0.4581    3.8742    0.1702 H         1 <0>         0.0935
     27 H3          1.6720    3.0312    1.1912 H         1 <0>         0.0941
     28 H4          1.0193    1.4666    0.0002 H         1 <0>         0.1287
     29 H5          0.0023   -0.0141    0.0019 H         1 <0>         0.1310
     30 H6          1.7956   -0.1601   -3.1953 H         1 <0>         0.4680
     31 H7          0.4416    0.7681   -4.8364 H         1 <0>         0.4638
     32 H8         -1.0686    1.8060   -4.3148 H         1 <0>         0.4776
     33 H9         -1.4858   -0.6937    0.3089 H         1 <0>         0.0785
     34 H10        -3.1660   -0.4827    0.9081 H         1 <0>         0.0944
     35 H11        -1.9469   -1.3185    1.9287 H         1 <0>         0.0932
     36 H12        -4.1849    1.0805    4.0727 H         1 <0>         0.1313
     37 H13        -3.9657   -0.1612    2.7934 H         1 <0>         0.1289
     38 H14        -6.2615   -1.7319    5.1855 H         1 <0>         0.4682
     39 H15        -5.0143   -3.0255    6.6548 H         1 <0>         0.4639
     40 H16        -3.1271   -2.7767    6.7365 H         1 <0>         0.4772
     41 H17        -3.4764    2.2129    5.0650 H         1 <0>         0.0785
     42 H18        -3.2043    3.9132    4.5534 H         1 <0>         0.0934
     43 H19        -1.9860    3.0765    5.5744 H         1 <0>         0.0943
     44 H20        -0.2629    5.2270    2.7876 H         1 <0>         0.1312
     45 H21        -1.4998    4.9886    4.0682 H         1 <0>         0.1290
     46 H22         0.3819    7.9370    5.1750 H         1 <0>         0.4682
     47 H23         2.0377    7.2387    6.6443 H         1 <0>         0.4639
     48 H24         2.4820    5.3879    6.7288 H         1 <0>         0.4772
     49 H25         1.4137    0.1043   -1.3475 H         1 <0>         0.4655
     50 H26        -5.4223   -0.4349    4.0702 H         1 <0>         0.4659
     51 H27        -0.5289    6.6870    4.0625 H         1 <0>         0.4659
@<TRIPOS>BOND
     1    1    2 1
     2    1   25 1
     3    1   26 1
     4    1   27 1
     5    2    7 ar
     6    2    3 ar
     7    3    4 ar
     8    3   20 1
     9    4    5 ar
    10    4   19 1
    11    5    6 ar
    12    5   14 1
    13    6    7 ar
    14    6   13 1
    15    7    8 1
    16    8    9 1
    17    8   28 1
    18    8   29 1
    19    9   10 1
    20   10   11 2
    21   10   12 1
    22   11   30 1
    23   11   49 1
    24   12   31 1
    25   12   32 1
    26   13   33 1
    27   13   34 1
    28   13   35 1
    29   14   15 1
    30   14   36 1
    31   14   37 1
    32   15   16 1
    33   16   17 2
    34   16   18 1
    35   17   38 1
    36   17   50 1
    37   18   39 1
    38   18   40 1
    39   19   41 1
    40   19   42 1
    41   19   43 1
    42   20   21 1
    43   20   44 1
    44   20   45 1
    45   21   22 1
    46   22   23 2
    47   22   24 1
    48   23   46 1
    49   23   51 1
    50   24   47 1
    51   24   48 1
@<TRIPOS>MOLECULE
ZINC35645776
   57    59     0     0     0
SMALL
USER_CHARGES

@<TRIPOS>ATOM
      1 C1         -0.0167    1.3784    0.0096 C.ar      1 <0>        -0.0207
      2 C2          1.1695    2.0865    0.0021 C.ar      1 <0>        -0.1494
      3 C3          2.3802    1.4093   -0.0131 C.ar      1 <0>         0.1806
      4 C4          2.3963    0.0221   -0.0207 C.ar      1 <0>        -0.1734
      5 C5          1.2074   -0.6814   -0.0132 C.ar      1 <0>         0.0004
      6 C6          0.0021   -0.0041    0.0020 C.ar      1 <0>        -0.0860
      7 N1         -1.2702   -0.7602    0.0106 N.pl3     1 <0>         0.0409
      8 O1         -2.3247   -0.1690    0.0243 O.2       1 <0>        -0.1666
      9 O2         -1.2550   -1.9691    0.0040 O.3       1 <0>        -0.1631
     10 O3          3.5484    2.1036   -0.0210 O.3       1 <0>        -0.2897
     11 C7          4.7565    1.3405   -0.0366 C.3       1 <0>         0.2219
     12 H1          4.7409    0.6524   -0.8818 H         1 <0>         0.0835
     13 C8          5.9547    2.2842   -0.1688 C.3       1 <0>         0.0636
     14 H2          5.8947    2.8186   -1.1169 H         1 <0>         0.0822
     15 C9          7.2478    1.4643   -0.1242 C.3       1 <0>         0.0799
     16 H3          8.1063    2.1349   -0.1615 H         1 <0>         0.0869
     17 C10         7.2836    0.6580    1.1777 C.3       1 <0>         0.0914
     18 H4          7.3037    1.3398    2.0279 H         1 <0>         0.0936
     19 C11         6.0340   -0.2228    1.2578 C.3       1 <0>         0.1211
     20 H5          6.0352   -0.9316    0.4297 H         1 <0>         0.0855
     21 O4          4.8675    0.5989    1.1798 O.3       1 <0>        -0.3635
     22 C12         6.0325   -0.9869    2.5834 C.3       1 <0>         0.0758
     23 O5          4.9294   -1.8949    2.6086 O.3       1 <0>        -0.3733
     24 C13         4.8356   -2.6624    3.8103 C.3       1 <0>         0.2192
     25 H6          5.8029   -3.1146    4.0292 H         1 <0>         0.0975
     26 C14         3.7861   -3.7627    3.6328 C.3       1 <0>         0.0640
     27 H7          4.0540   -4.3876    2.7808 H         1 <0>         0.0711
     28 C15         2.4188   -3.1182    3.3850 C.3       1 <0>         0.0868
     29 H8          1.6572   -3.8947    3.3133 H         1 <0>         0.0702
     30 C16         2.0885   -2.1827    4.5521 C.3       1 <0>         0.0928
     31 H9          1.1424   -1.6776    4.3576 H         1 <0>         0.0680
     32 C17         3.2036   -1.1434    4.6941 C.3       1 <0>         0.1139
     33 H10         3.2538   -0.5381    3.7891 H         1 <0>         0.0945
     34 O6          4.4523   -1.8101    4.8914 O.3       1 <0>        -0.3624
     35 C18         2.9109   -0.2420    5.8953 C.3       1 <0>         0.0860
     36 O7          3.8880    0.7989    5.9589 O.3       1 <0>        -0.5668
     37 O8          1.9853   -2.9421    5.7583 O.3       1 <0>        -0.5297
     38 O9          2.4560   -2.3714    2.1672 O.3       1 <0>        -0.5294
     39 O10         3.7304   -4.5646    4.8143 O.3       1 <0>        -0.5279
     40 O11         8.4516   -0.1650    1.1978 O.3       1 <0>        -0.5474
     41 O12         7.2879    0.5738   -1.2412 O.3       1 <0>        -0.5433
     42 O13         5.9451    3.2220    0.9094 O.3       1 <0>        -0.5426
     43 H11        -0.9594    1.9052    0.0260 H         1 <0>         0.1589
     44 H12         1.1543    3.1664    0.0077 H         1 <0>         0.1536
     45 H13         3.3375   -0.5074   -0.0330 H         1 <0>         0.1538
     46 H14         1.2194   -1.7613   -0.0191 H         1 <0>         0.1536
     47 H15         6.9641   -1.5441    2.6827 H         1 <0>         0.0767
     48 H16         5.9414   -0.2814    3.4093 H         1 <0>         0.0690
     49 H17         1.9191    0.1969    5.7870 H         1 <0>         0.0557
     50 H18         2.9490   -0.8326    6.8106 H         1 <0>         0.0629
     51 H19         3.7641    1.4099    6.6981 H         1 <0>         0.3794
     52 H20         1.2996   -3.6235    5.7366 H         1 <0>         0.3772
     53 H21         2.6662   -2.9020    1.3867 H         1 <0>         0.3778
     54 H22         4.5654   -5.0001    5.0338 H         1 <0>         0.3806
     55 H23         9.2815    0.3286    1.1455 H         1 <0>         0.3866
     56 H24         7.2621    1.0183   -2.0996 H         1 <0>         0.3843
     57 H25         5.1512    3.7729    0.9444 H         1 <0>         0.3940
@<TRIPOS>BOND
     1    1    6 ar
     2    1    2 ar
     3    1   43 1
     4    2    3 ar
     5    2   44 1
     6    3    4 ar
     7    3   10 1
     8    4    5 ar
     9    4   45 1
    10    5    6 ar
    11    5   46 1
    12    6    7 1
    13    7    8 2
    14    7    9 1
    15   10   11 1
    16   11   12 1
    17   11   21 1
    18   11   13 1
    19   13   14 1
    20   13   15 1
    21   13   42 1
    22   15   16 1
    23   15   17 1
    24   15   41 1
    25   17   18 1
    26   17   19 1
    27   17   40 1
    28   19   20 1
    29   19   21 1
    30   19   22 1
    31   22   23 1
    32   22   47 1
    33   22   48 1
    34   23   24 1
    35   24   25 1
    36   24   34 1
    37   24   26 1
    38   26   27 1
    39   26   28 1
    40   26   39 1
    41   28   29 1
    42   28   30 1
    43   28   38 1
    44   30   31 1
    45   30   32 1
    46   30   37 1
    47   32   33 1
    48   32   34 1
    49   32   35 1
    50   35   36 1
    51   35   49 1
    52   35   50 1
    53   36   51 1
    54   37   52 1
    55   38   53 1
    56   39   54 1
    57   40   55 1
    58   41   56 1
    59   42   57 1
@<TRIPOS>MOLECULE
ZINC44960173
   57    59     0     0     0
SMALL
USER_CHARGES

@<TRIPOS>ATOM
      1 C1          0.6728    3.5008    0.8440 C.ar      1 <0>        -0.1845
      2 C2          1.7702    3.4251    0.0094 C.ar      1 <0>        -0.0451
      3 C3          2.7196    2.4288    0.1992 C.ar      1 <0>        -0.1461
      4 C4          2.5646    1.5090    1.2286 C.ar      1 <0>        -0.0571
      5 C5          1.4671    1.5851    2.0629 C.ar      1 <0>        -0.1800
      6 C6          0.5182    2.5811    1.8730 C.ar      1 <0>         0.2186
      7 N1         -0.5947    2.6581    2.7191 N.pl3     1 <0>        -0.8776
      8 S1          4.1198    2.3316   -0.8660 S.3       1 <0>        -0.0789
      9 C7          5.0499    0.9059   -0.2392 C.3       1 <0>         0.0667
     10 H1          4.4001    0.0311   -0.2129 H         1 <0>         0.0909
     11 C8          6.2416    0.6292   -1.1595 C.3       1 <0>         0.0684
     12 H2          6.8703    1.5176   -1.2184 H         1 <0>         0.0861
     13 C9          7.0557   -0.5372   -0.5910 C.3       1 <0>         0.1292
     14 H3          6.4421   -1.4381   -0.5782 H         1 <0>         0.0718
     15 C10         7.4912   -0.1935    0.8367 C.3       1 <0>         0.0772
     16 H4          8.1452    0.6783    0.8182 H         1 <0>         0.0935
     17 C11         6.2512    0.1150    1.6799 C.3       1 <0>         0.0716
     18 H5          5.6173   -0.7702    1.7315 H         1 <0>         0.0795
     19 O1          5.5230    1.1879    1.0794 O.3       1 <0>        -0.3384
     20 C12         6.6815    0.5174    3.0919 C.3       1 <0>         0.0856
     21 O2          5.5237    0.6923    3.9110 O.3       1 <0>        -0.5597
     22 O3          8.1910   -1.3034    1.4028 O.3       1 <0>        -0.3555
     23 C13         9.3133   -0.9342    2.2066 C.3       1 <0>         0.2115
     24 H6          9.0060   -0.1877    2.9390 H         1 <0>         0.0972
     25 C14         9.8505   -2.1706    2.9322 C.3       1 <0>         0.0622
     26 H7          9.0570   -2.6127    3.5348 H         1 <0>         0.0706
     27 C15        10.3355   -3.1901    1.8970 C.3       1 <0>         0.0849
     28 H8         10.7705   -4.0493    2.4074 H         1 <0>         0.0691
     29 C16        11.3945   -2.5328    1.0065 C.3       1 <0>         0.0884
     30 H9         11.7052   -3.2339    0.2320 H         1 <0>         0.0713
     31 C17        10.7977   -1.2824    0.3553 C.3       1 <0>         0.1060
     32 H10         9.9610   -1.5686   -0.2820 H         1 <0>         0.1168
     33 O4         10.3383   -0.3899    1.3727 O.3       1 <0>        -0.3593
     34 C18        11.8675   -0.5868   -0.4889 C.3       1 <0>         0.0890
     35 O5         11.2757    0.4953   -1.2105 O.3       1 <0>        -0.5588
     36 O6         12.5249   -2.1661    1.8001 O.3       1 <0>        -0.5301
     37 O7          9.2330   -3.6184    1.0949 O.3       1 <0>        -0.5310
     38 O8         10.9384   -1.7928    3.7782 O.3       1 <0>        -0.5257
     39 O9          8.2096   -0.7564   -1.4050 O.3       1 <0>        -0.5313
     40 O10         5.7686    0.2915   -2.4650 O.3       1 <0>        -0.5500
     41 H11        -0.0630    4.2780    0.6993 H         1 <0>         0.1262
     42 H12         1.8902    4.1401   -0.7910 H         1 <0>         0.1270
     43 H13         3.3024    0.7342    1.3761 H         1 <0>         0.1248
     44 H14         1.3466    0.8701    2.8632 H         1 <0>         0.1233
     45 H15        -1.2575    3.3537    2.5865 H         1 <0>         0.3991
     46 H16        -0.7028    2.0157    3.4378 H         1 <0>         0.3990
     47 H17         7.3120   -0.2639    3.5162 H         1 <0>         0.0617
     48 H18         7.2406    1.4521    3.0488 H         1 <0>         0.0586
     49 H19         5.7216    0.9487    4.8222 H         1 <0>         0.3833
     50 H20        12.6519   -0.2027    0.1632 H         1 <0>         0.0576
     51 H21        12.2966   -1.3008   -1.1919 H         1 <0>         0.0548
     52 H22        11.8973    0.9826   -1.7684 H         1 <0>         0.3756
     53 H23        12.9504   -2.9110    2.2464 H         1 <0>         0.3754
     54 H24         8.5214   -4.0388    1.5968 H         1 <0>         0.3816
     55 H25        10.7029   -1.1446    4.4560 H         1 <0>         0.3797
     56 H26         8.0061   -1.0097   -2.3157 H         1 <0>         0.3850
     57 H27         5.2405    0.9850   -2.8835 H         1 <0>         0.3906
@<TRIPOS>BOND
     1    1    6 ar
     2    1    2 ar
     3    1   41 1
     4    2    3 ar
     5    2   42 1
     6    3    4 ar
     7    3    8 1
     8    4    5 ar
     9    4   43 1
    10    5    6 ar
    11    5   44 1
    12    6    7 1
    13    7   45 1
    14    7   46 1
    15    8    9 1
    16    9   10 1
    17    9   19 1
    18    9   11 1
    19   11   12 1
    20   11   13 1
    21   11   40 1
    22   13   14 1
    23   13   15 1
    24   13   39 1
    25   15   16 1
    26   15   17 1
    27   15   22 1
    28   17   18 1
    29   17   19 1
    30   17   20 1
    31   20   21 1
    32   20   47 1
    33   20   48 1
    34   21   49 1
    35   22   23 1
    36   23   24 1
    37   23   33 1
    38   23   25 1
    39   25   26 1
    40   25   27 1
    41   25   38 1
    42   27   28 1
    43   27   29 1
    44   27   37 1
    45   29   30 1
    46   29   31 1
    47   29   36 1
    48   31   32 1
    49   31   33 1
    50   31   34 1
    51   34   35 1
    52   34   50 1
    53   34   51 1
    54   35   52 1
    55   36   53 1
    56   37   54 1
    57   38   55 1
    58   39   56 1
    59   40   57 1
@<TRIPOS>MOLECULE
ZINC39210763
   50    54     0     0     0
SMALL
USER_CHARGES

@<TRIPOS>ATOM
      1 C1         -2.3909    0.5823    2.0615 C.3       1 <0>        -0.1908
      2 C2         -1.1038    0.0226    1.4524 C.3       1 <0>         0.1294
      3 H1         -0.3479    0.8032    1.3670 H         1 <0>         0.1482
      4 C3         -1.3859   -0.6221    0.0697 C.3       1 <0>         0.0239
      5 H2         -0.4798   -0.6715   -0.5342 H         1 <0>         0.1540
      6 N1         -1.8298   -1.9818    0.4873 N.3       1 <0>        -0.4019
      7 N2         -1.0228   -2.2775    1.6700 N.4       1 <0>        -0.1548
      8 N3         -0.5968   -1.1103    2.2522 N.pl3     1 <0>        -0.5047
      9 C4          0.1815   -1.0082    3.4002 C.2       1 <0>         0.3082
     10 C5          0.6922   -2.1310    4.1946 C.2       1 <0>         0.3136
     11 N4          1.3782   -1.6481    5.1929 N.2       1 <0>        -0.2787
     12 O1          1.3474   -0.2349    5.0984 O.3       1 <0>         0.0779
     13 N5          0.5870    0.1018    3.9516 N.2       1 <0>        -0.2660
     14 N6          0.4804   -3.4795    3.9288 N.pl3     1 <0>        -0.8199
     15 C6         -2.4829    0.1103   -0.6592 C.2       1 <0>         0.1430
     16 N7         -2.1953    1.0920   -1.4289 N.2       1 <0>        -0.1707
     17 N8         -0.8557    1.4216   -1.6732 N.pl3     1 <0>        -0.5485
     18 C7         -0.5451    2.5421   -2.4188 C.2       1 <0>         0.5905
     19 N9         -1.5327    3.2734   -2.8753 N.2       1 <0>        -0.4801
     20 C8         -1.1982    4.4112   -3.7286 C.3       1 <0>         0.2550
     21 H3         -1.1818    4.0969   -4.7722 H         1 <0>         0.2203
     22 C9          0.1908    4.8687   -3.3071 C.2       1 <0>        -0.1070
     23 C10         0.0963    6.2166   -3.1382 C.ar      1 <0>         0.1581
     24 C11         1.0660    7.2110   -2.8582 C.ar      1 <0>        -0.1282
     25 C12         0.6294    8.4928   -2.7331 C.ar      1 <0>         0.1100
     26 C13        -0.7064    8.8848   -2.8633 C.ar      1 <0>        -0.0336
     27 C14        -1.7183    8.0189   -3.1374 C.ar      1 <0>        -0.0747
     28 C15        -1.3389    6.6054   -3.2972 C.ar      1 <0>         0.3321
     29 N10        -2.0682    5.5686   -3.5766 N.pl3     1 <0>        -0.4152
     30 N11         1.1616    3.9870   -3.0478 N.2       1 <0>         0.1104
     31 N12         0.7630    2.8249   -2.6315 N.pl3     1 <0>        -0.3511
     32 C16        -3.9183   -0.3130   -0.4820 C.3       1 <0>        -0.1290
     33 H4         -2.1968    0.9104    3.0827 H         1 <0>         0.1047
     34 H5         -2.7359    1.4285    1.4674 H         1 <0>         0.1038
     35 H6         -3.1568   -0.1932    2.0684 H         1 <0>         0.0779
     36 H7         -2.8139   -1.9883    0.7101 H         1 <0>         0.4109
     37 H8         -1.5778   -2.7986    2.3323 H         1 <0>         0.4372
     38 H9         -0.0465   -3.7452    3.1589 H         1 <0>         0.3954
     39 H10         0.8597   -4.1544    4.5132 H         1 <0>         0.4432
     40 H11        -0.1464    0.8629   -1.3187 H         1 <0>         0.4110
     41 H12         2.1108    6.9608   -2.7480 H         1 <0>         0.2079
     42 H13         1.3618    9.2574   -2.5198 H         1 <0>         0.2021
     43 H14        -0.9472    9.9303   -2.7392 H         1 <0>         0.2057
     44 H15        -2.7421    8.3494   -3.2327 H         1 <0>         0.2162
     45 H16        -4.3294    0.1609    0.4094 H         1 <0>         0.1159
     46 H17        -4.4969   -0.0095   -1.3545 H         1 <0>         0.1217
     47 H18        -3.9668   -1.3964   -0.3728 H         1 <0>         0.1010
     48 H19         1.4244    2.1338   -2.4708 H         1 <0>         0.4822
     49 H20        -3.0338    5.5655   -3.6690 H         1 <0>         0.4864
     50 H21        -0.2213   -2.8275    1.3994 H         1 <0>         0.4570
@<TRIPOS>BOND
     1    1    2 1
     2    1   33 1
     3    1   34 1
     4    1   35 1
     5    2    3 1
     6    2    8 1
     7    2    4 1
     8    4    5 1
     9    4    6 1
    10    4   15 1
    11    6    7 1
    12    6   36 1
    13    7    8 1
    14    7   37 1
    15    7   50 1
    16    8    9 1
    17    9   13 2
    18    9   10 1
    19   10   11 2
    20   10   14 1
    21   11   12 1
    22   12   13 1
    23   14   38 1
    24   14   39 1
    25   15   16 2
    26   15   32 1
    27   16   17 1
    28   17   18 1
    29   17   40 1
    30   18   31 1
    31   18   19 2
    32   19   20 1
    33   20   21 1
    34   20   29 1
    35   20   22 1
    36   22   23 2
    37   22   30 1
    38   23   28 ar
    39   23   24 ar
    40   24   25 ar
    41   24   41 1
    42   25   26 ar
    43   25   42 1
    44   26   27 ar
    45   26   43 1
    46   27   28 ar
    47   27   44 1
    48   28   29 2
    49   29   49 1
    50   30   31 2
    51   31   48 1
    52   32   45 1
    53   32   46 1
    54   32   47 1
@<TRIPOS>MOLECULE
ZINC07782764
   60    62     0     0     0
SMALL
USER_CHARGES
[2-[6-(2-hydroxy-2-phenyl-ethyl)-1-methyl-2-piperidyl]-1-phenyl-ethylidene]aminourea
@<TRIPOS>ATOM
      1 C1          2.0802   -1.9625   -0.0133 C.3       1 <0>        -0.0556
      2 C2          0.4500   -2.2259   -1.7835 C.3       1 <0>         0.0322
      3 H1         -0.3014   -2.6427   -1.1129 H         1 <0>         0.1361
      4 C3          0.2383   -2.7807   -3.1940 C.3       1 <0>        -0.1476
      5 C4          0.3892   -4.3042   -3.1658 C.3       1 <0>        -0.1376
      6 C5          1.7745   -4.6620   -2.6205 C.3       1 <0>        -0.1445
      7 C6          1.9417   -4.0527   -1.2267 C.3       1 <0>         0.0350
      8 H2          2.9326   -4.2936   -0.8417 H         1 <0>         0.1479
      9 C7          0.8772   -4.6255   -0.2889 C.3       1 <0>        -0.1419
     10 C8          1.1250   -6.0983   -0.0877 C.2       1 <0>         0.1475
     11 N1          0.2809   -6.9673   -0.5518 N.2       1 <0>        -0.2198
     12 N2         -0.9041   -6.5361   -1.1623 N.am      1 <0>        -0.5871
     13 C9         -1.8223   -7.4376   -1.5631 C.2       1 <0>         0.7321
     14 O1         -2.8508   -7.0634   -2.0929 O.2       1 <0>        -0.5723
     15 N3         -1.6005   -8.7539   -1.3767 N.am      1 <0>        -0.8434
     16 C10         2.3271   -6.5518    0.6368 C.ar      1 <0>        -0.0579
     17 C11         3.2409   -5.6191    1.1328 C.ar      1 <0>        -0.1092
     18 C12         4.3604   -6.0502    1.8136 C.ar      1 <0>        -0.1159
     19 C13         4.5844   -7.4033    1.9968 C.ar      1 <0>        -0.0931
     20 C14         3.6861   -8.3330    1.5036 C.ar      1 <0>        -0.1125
     21 C15         2.5599   -7.9161    0.8250 C.ar      1 <0>        -0.0745
     22 C16         0.3200   -0.7017   -1.8105 C.3       1 <0>        -0.1758
     23 C17         1.2900   -0.1252   -2.8438 C.3       1 <0>         0.1367
     24 H3          1.0997   -0.5818   -3.8151 H         1 <0>         0.1287
     25 C18         1.0918    1.3654   -2.9420 C.ar      1 <0>        -0.1344
     26 C19         1.7355    2.2082   -2.0552 C.ar      1 <0>        -0.1134
     27 C20         1.5579    3.5759   -2.1487 C.ar      1 <0>        -0.1114
     28 C21         0.7281    4.1002   -3.1220 C.ar      1 <0>        -0.1051
     29 C22         0.0799    3.2571   -4.0052 C.ar      1 <0>        -0.1105
     30 C23         0.2620    1.8898   -3.9153 C.ar      1 <0>        -0.1053
     31 O2          2.6333   -0.4018   -2.4424 O.3       1 <0>        -0.5636
     32 H4          1.2781   -2.1876    0.6895 H         1 <0>         0.1245
     33 H5          3.0228   -2.3478    0.3755 H         1 <0>         0.1272
     34 H6          2.1556   -0.8831   -0.1449 H         1 <0>         0.1180
     35 H7         -0.7616   -2.5204   -3.5411 H         1 <0>         0.1152
     36 H8          0.9808   -2.3539   -3.8682 H         1 <0>         0.0971
     37 H9          0.2821   -4.6996   -4.1759 H         1 <0>         0.1015
     38 H10        -0.3780   -4.7344   -2.5220 H         1 <0>         0.0699
     39 H11         2.5412   -4.2648   -3.2857 H         1 <0>         0.0983
     40 H12         1.8722   -5.7458   -2.5580 H         1 <0>         0.1099
     41 H13         0.9268   -4.1141    0.6725 H         1 <0>         0.1160
     42 H14        -0.1099   -4.4796   -0.7275 H         1 <0>         0.0952
     43 H15        -1.0637   -5.5888   -1.2964 H         1 <0>         0.3955
     44 H16        -0.7801   -9.0524   -0.9541 H         1 <0>         0.4091
     45 H17        -2.2614   -9.4027   -1.6652 H         1 <0>         0.4213
     46 H18         3.0694   -4.5628    0.9869 H         1 <0>         0.1166
     47 H19         5.0661   -5.3301    2.2007 H         1 <0>         0.1316
     48 H20         5.4648   -7.7353    2.5270 H         1 <0>         0.1320
     49 H21         3.8674   -9.3876    1.6499 H         1 <0>         0.1342
     50 H22         1.8599   -8.6429    0.4399 H         1 <0>         0.1362
     51 H23         0.5570   -0.2993   -0.8256 H         1 <0>         0.0980
     52 H24        -0.7007   -0.4288   -2.0784 H         1 <0>         0.1261
     53 H25         2.3803    1.7982   -1.2920 H         1 <0>         0.1160
     54 H26         2.0646    4.2346   -1.4589 H         1 <0>         0.1291
     55 H27         0.5864    5.1685   -3.1926 H         1 <0>         0.1301
     56 H28        -0.5685    3.6667   -4.7656 H         1 <0>         0.1305
     57 H29        -0.2444    1.2311   -4.6053 H         1 <0>         0.1258
     58 H30         2.8730   -0.0250   -1.5847 H         1 <0>         0.3821
     59 N4          1.8098   -2.5836   -1.3263 N.4       1 <0>        -0.3877
     60 H31         2.4932   -2.2334   -2.0079 H         1 <0>         0.4367
@<TRIPOS>BOND
     1    1   32 1
     2    1   33 1
     3    1   34 1
     4    1   59 1
     5    2    3 1
     6    2    4 1
     7    2   22 1
     8    2   59 1
     9    4    5 1
    10    4   35 1
    11    4   36 1
    12    5    6 1
    13    5   37 1
    14    5   38 1
    15    6    7 1
    16    6   39 1
    17    6   40 1
    18    7    8 1
    19    7    9 1
    20    7   59 1
    21    9   10 1
    22    9   41 1
    23    9   42 1
    24   10   11 2
    25   10   16 1
    26   11   12 1
    27   12   13 am
    28   12   43 1
    29   13   14 2
    30   13   15 am
    31   15   44 1
    32   15   45 1
    33   16   21 ar
    34   16   17 ar
    35   17   18 ar
    36   17   46 1
    37   18   19 ar
    38   18   47 1
    39   19   20 ar
    40   19   48 1
    41   20   21 ar
    42   20   49 1
    43   21   50 1
    44   22   23 1
    45   22   51 1
    46   22   52 1
    47   23   24 1
    48   23   25 1
    49   23   31 1
    50   25   30 ar
    51   25   26 ar
    52   26   27 ar
    53   26   53 1
    54   27   28 ar
    55   27   54 1
    56   28   29 ar
    57   28   55 1
    58   29   30 ar
    59   29   56 1
    60   30   57 1
    61   31   58 1
    62   59   60 1
@<TRIPOS>MOLECULE
ZINC39237426
   54    58     0     0     0
SMALL
USER_CHARGES

@<TRIPOS>ATOM
      1 C1         -0.0193    1.3016   -0.2129 C.2       1 <0>        -0.2130
      2 C2          1.3259    1.7013   -0.3851 C.2       1 <0>        -0.1136
      3 C3          2.0923    0.6599   -0.0144 C.2       1 <0>        -0.1260
      4 O1          1.2873   -0.3437    0.3709 O.3       1 <0>        -0.1821
      5 C4          0.0056    0.0398    0.2526 C.2       1 <0>         0.0196
      6 C5          3.5989    0.6249   -0.0294 C.3       1 <0>         0.1434
      7 H1          3.9741    1.5517   -0.4634 H         1 <0>         0.1816
      8 C6          4.1123    0.4982    1.4042 C.3       1 <0>        -0.1358
      9 C7          3.7356   -0.8718    1.9924 C.3       1 <0>         0.0071
     10 H2          2.6522   -0.9522    2.0807 H         1 <0>         0.1169
     11 N1          4.2355   -1.8894    1.0757 N.3       1 <0>        -0.3390
     12 C8          3.5481   -1.7354   -0.2360 C.3       1 <0>         0.1225
     13 H3          2.4678   -1.6906   -0.0981 H         1 <0>         0.1699
     14 N2          4.0489   -0.5128   -0.8530 N.4       1 <0>        -0.4884
     15 C9          3.9413   -3.0223   -0.9721 C.3       1 <0>        -0.1451
     16 H4          4.8472   -2.8670   -1.5581 H         1 <0>         0.1403
     17 C10         4.1996   -4.0346    0.1722 C.3       1 <0>         0.0503
     18 N3          3.9846   -3.2752    1.4356 N.3       1 <0>        -0.4453
     19 C11         2.8148   -3.4926   -1.8556 C.2       1 <0>         0.5150
     20 O2          1.7789   -2.8637   -1.9040 O.2       1 <0>        -0.5262
     21 N4          2.9583   -4.6122   -2.5921 N.am      1 <0>        -0.7103
     22 C12         1.8631   -5.0694   -3.4510 C.3       1 <0>         0.1845
     23 C13         2.2756   -6.3330   -4.1611 C.2       1 <0>         0.0403
     24 H5          3.2884   -5.6073   -5.8300 H         1 <0>         0.4166
     25 C14         2.0011   -7.5779   -3.7405 C.2       1 <0>        -0.1525
     26 C15         2.5826   -8.4990   -4.7201 C.ar      1 <0>        -0.1066
     27 C16         2.6308   -9.8896   -4.8341 C.ar      1 <0>        -0.0551
     28 C17         3.2749  -10.4632   -5.9081 C.ar      1 <0>        -0.0578
     29 C18         3.8745   -9.6658   -6.8746 C.ar      1 <0>        -0.0785
     30 C19         3.8355   -8.2925   -6.7754 C.ar      1 <0>        -0.1186
     31 C20         3.1902   -7.6924   -5.6996 C.ar      1 <0>         0.1105
     32 N5          2.9802   -6.3812   -5.3329 N.pl3     1 <0>        -0.5870
     33 Cl1         3.3382  -12.1918   -6.0542 Cl        1 <0>        -0.0610
     34 C21         4.3840   -1.0439    3.3675 C.3       1 <0>         0.4770
     35 F1          3.9342   -0.0341    4.2249 F         1 <0>        -0.1709
     36 F2          4.0358   -2.2924    3.8942 F         1 <0>        -0.1622
     37 F3          5.7749   -0.9628    3.2407 F         1 <0>        -0.1626
     38 H6         -0.8981    1.8967   -0.4125 H         1 <0>         0.1658
     39 H7          1.6717    2.6588   -0.7456 H         1 <0>         0.1653
     40 H8         -0.8585   -0.5625    0.4912 H         1 <0>         0.2176
     41 H9          5.1970    0.6056    1.4086 H         1 <0>         0.1277
     42 H10         3.6710    1.2856    2.0152 H         1 <0>         0.1430
     43 H11         3.6782   -0.4261   -1.7875 H         1 <0>         0.4417
     44 H12         3.4958   -4.8644    0.1070 H         1 <0>         0.1028
     45 H13         5.2240   -4.4039    0.1243 H         1 <0>         0.1289
     46 H14         3.0418   -3.3959    1.7741 H         1 <0>         0.3417
     47 H15         3.7868   -5.1152   -2.5535 H         1 <0>         0.4114
     48 H16         0.9813   -5.2665   -2.8414 H         1 <0>         0.1039
     49 H17         1.6318   -4.2986   -4.1861 H         1 <0>         0.0871
     50 H18         1.4555   -7.8490   -2.8488 H         1 <0>         0.1535
     51 H19         2.1659  -10.5123   -4.0841 H         1 <0>         0.1376
     52 H20         4.3765  -10.1273   -7.7121 H         1 <0>         0.1414
     53 H21         4.3057   -7.6823   -7.5324 H         1 <0>         0.1326
     54 H22         5.0572   -0.5339   -0.8851 H         1 <0>         0.4400
@<TRIPOS>BOND
     1    1    5 2
     2    1    2 1
     3    1   38 1
     4    2    3 2
     5    2   39 1
     6    3    4 1
     7    3    6 1
     8    4    5 1
     9    5   40 1
    10    6    7 1
    11    6   14 1
    12    6    8 1
    13    8    9 1
    14    8   41 1
    15    8   42 1
    16    9   10 1
    17    9   11 1
    18    9   34 1
    19   11   18 1
    20   11   12 1
    21   12   13 1
    22   12   14 1
    23   12   15 1
    24   14   43 1
    25   14   54 1
    26   15   16 1
    27   15   17 1
    28   15   19 1
    29   17   18 1
    30   17   44 1
    31   17   45 1
    32   18   46 1
    33   19   20 2
    34   19   21 am
    35   21   22 1
    36   21   47 1
    37   22   48 1
    38   22   49 1
    39   22   23 1
    40   23   25 2
    41   23   32 1
    42   24   32 1
    43   25   26 1
    44   25   50 1
    45   26   27 ar
    46   26   31 ar
    47   27   28 ar
    48   27   51 1
    49   28   29 ar
    50   28   33 1
    51   29   30 ar
    52   29   52 1
    53   30   31 ar
    54   30   53 1
    55   31   32 1
    56   34   35 1
    57   34   36 1
    58   34   37 1
@<TRIPOS>MOLECULE
ZINC41725602
   55    56     0     0     0
SMALL
USER_CHARGES

@<TRIPOS>ATOM
      1 C1         -1.1568    1.3061    0.1977 C.3       1 <0>        -0.1252
      2 C2         -0.5359   -0.0640    0.1062 C.ar      1 <0>        -0.0409
      3 C3         -0.5783   -0.7728   -1.0943 C.ar      1 <0>        -0.1225
      4 C4         -0.0006   -2.0411   -1.1715 C.ar      1 <0>        -0.0887
      5 C5          0.6098   -2.5903   -0.0619 C.ar      1 <0>        -0.1115
      6 C6          0.6517   -1.8886    1.1279 C.ar      1 <0>        -0.1018
      7 C7          0.0846   -0.6219    1.2136 C.ar      1 <0>         0.1212
      8 N1          0.1350    0.0865    2.4173 N.am      1 <0>        -0.6280
      9 C8          0.3395   -0.5691    3.5770 C.2       1 <0>         0.5077
     10 O1          0.3860   -1.7820    3.5884 O.2       1 <0>        -0.4933
     11 C9          0.5090    0.1967    4.8479 C.2       1 <0>         0.5209
     12 O2          0.4625    1.4094    4.8365 O.2       1 <0>        -0.4962
     13 N2          0.7135   -0.4589    6.0076 N.am      1 <0>        -0.7040
     14 C10         0.8797    0.2923    7.2543 C.3       1 <0>         0.0936
     15 C11         1.0959   -0.6834    8.4128 C.3       1 <0>        -0.0234
     16 N3          1.2626    0.0698    9.6629 N.4       1 <0>        -0.3797
     17 C12         2.4880    0.8743    9.5879 C.3       1 <0>        -0.0149
     18 C13         2.6241    1.7225   10.8543 C.3       1 <0>        -0.1115
     19 H1          1.7620    2.3834   10.9440 H         1 <0>         0.0964
     20 C14         2.6908    0.8003   12.0750 C.3       1 <0>        -0.1303
     21 C15         1.4423   -0.0862   12.1017 C.3       1 <0>        -0.1128
     22 H2          1.5090   -0.7838   12.9365 H         1 <0>         0.1213
     23 C16         1.3501   -0.8674   10.7891 C.3       1 <0>        -0.0029
     24 C17         0.1979    0.7887   12.2651 C.3       1 <0>        -0.1717
     25 C18         3.9028    2.5588   10.7741 C.3       1 <0>        -0.1522
     26 C19        -1.2336   -0.1828   -2.2812 C.2       1 <0>         0.5628
     27 O3         -1.6237    0.9680   -2.2510 O.2       1 <0>        -0.5301
     28 N4         -1.3983   -0.9210   -3.3967 N.am      1 <0>        -0.8480
     29 H3         -0.4555    2.0489   -0.1825 H         1 <0>         0.0834
     30 H4         -2.0703    1.3314   -0.3964 H         1 <0>         0.1041
     31 H5         -1.3936    1.5290    1.2380 H         1 <0>         0.0533
     32 H6         -0.0314   -2.5930   -2.0993 H         1 <0>         0.1326
     33 H7          1.0559   -3.5719   -0.1236 H         1 <0>         0.1381
     34 H8          1.1301   -2.3237    1.9929 H         1 <0>         0.1568
     35 H9          0.0228    1.0500    2.4181 H         1 <0>         0.4266
     36 H10         0.7506   -1.4281    6.0168 H         1 <0>         0.4221
     37 H11         1.7434    0.9518    7.1688 H         1 <0>         0.0968
     38 H12        -0.0142    0.8870    7.4421 H         1 <0>         0.0966
     39 H13         0.2322   -1.3429    8.4983 H         1 <0>         0.1424
     40 H14         1.9898   -1.2781    8.2249 H         1 <0>         0.1411
     41 H15         3.3507    0.2140    9.4990 H         1 <0>         0.1329
     42 H16         2.4404    1.5277    8.7168 H         1 <0>         0.1326
     43 H17         3.5809    0.1745   12.0109 H         1 <0>         0.0840
     44 H18         2.7308    1.4009   12.9838 H         1 <0>         0.0961
     45 H19         0.4624   -1.4997   10.8049 H         1 <0>         0.1331
     46 H20         2.2370   -1.4905   10.6746 H         1 <0>         0.1323
     47 H21         0.1309    1.4850   11.4292 H         1 <0>         0.0512
     48 H22        -0.6903    0.1572   12.2840 H         1 <0>         0.0738
     49 H23         0.2665    1.3473   13.1986 H         1 <0>         0.0859
     50 H24         3.8556    3.2121    9.9028 H         1 <0>         0.0691
     51 H25         3.9991    3.1627   11.6763 H         1 <0>         0.0786
     52 H26         4.7646    1.8973   10.6859 H         1 <0>         0.0677
     53 H27        -1.0870   -1.8394   -3.4209 H         1 <0>         0.4019
     54 H28        -1.8282   -0.5340   -4.1754 H         1 <0>         0.4093
     55 H29         0.4698    0.6798    9.7950 H         1 <0>         0.4238
@<TRIPOS>BOND
     1    1    2 1
     2    1   29 1
     3    1   30 1
     4    1   31 1
     5    2    7 ar
     6    2    3 ar
     7    3    4 ar
     8    3   26 1
     9    4    5 ar
    10    4   32 1
    11    5    6 ar
    12    5   33 1
    13    6    7 ar
    14    6   34 1
    15    7    8 1
    16    8    9 am
    17    8   35 1
    18    9   10 2
    19    9   11 1
    20   11   12 2
    21   11   13 am
    22   13   14 1
    23   13   36 1
    24   14   15 1
    25   14   37 1
    26   14   38 1
    27   15   16 1
    28   15   39 1
    29   15   40 1
    30   16   23 1
    31   16   17 1
    32   16   55 1
    33   17   18 1
    34   17   41 1
    35   17   42 1
    36   18   19 1
    37   18   20 1
    38   18   25 1
    39   20   21 1
    40   20   43 1
    41   20   44 1
    42   21   22 1
    43   21   23 1
    44   21   24 1
    45   23   45 1
    46   23   46 1
    47   24   47 1
    48   24   48 1
    49   24   49 1
    50   25   50 1
    51   25   51 1
    52   25   52 1
    53   26   27 2
    54   26   28 am
    55   28   53 1
    56   28   54 1
@<TRIPOS>MOLECULE
ZINC51124621
   44    45     0     0     0
SMALL
USER_CHARGES

@<TRIPOS>ATOM
      1 C1          0.0581    1.5193    0.1603 C.3       1 <0>        -0.1568
      2 C2          0.0714   -0.0105    0.1396 C.3       1 <0>        -0.1509
      3 C3         -1.3666   -0.5327    0.1177 C.3       1 <0>        -0.0114
      4 N1         -1.3538   -2.0015    0.0979 N.4       1 <0>        -0.3853
      5 C4         -0.7693   -2.5013    1.3481 C.3       1 <0>        -0.0058
      6 C5         -0.6791   -4.0280    1.2990 C.3       1 <0>        -0.1568
      7 C6         -2.0838   -4.6114    1.1214 C.3       1 <0>         0.1368
      8 C7         -2.7125   -4.0261   -0.1464 C.3       1 <0>        -0.1622
      9 C8         -2.7274   -2.4994   -0.0437 C.3       1 <0>        -0.0021
     10 N2         -1.9970   -6.0686    0.9974 N.am      1 <0>        -0.7233
     11 C9         -3.0524   -6.8374    1.3313 C.2       1 <0>         0.5919
     12 O1         -4.0767   -6.3216    1.7356 O.2       1 <0>        -0.5443
     13 C10        -2.9650   -8.3038    1.2065 C.ar      1 <0>        -0.2806
     14 C11        -1.8406   -8.9040    0.6280 C.ar      1 <0>         0.0387
     15 C12        -1.8071  -10.2845    0.5346 C.ar      1 <0>        -0.2250
     16 C13        -2.8750  -11.0259    1.0107 C.ar      1 <0>         0.2308
     17 N3         -3.9254  -10.4409    1.5520 N.ar      1 <0>        -0.5168
     18 C14        -4.0064   -9.1246    1.6713 C.ar      1 <0>         0.4710
     19 N4         -5.1249   -8.5542    2.2513 N.pl3     1 <0>        -0.5342
     20 N5         -6.0875   -9.3493    2.8057 N.3       1 <0>        -0.6026
     21 Br1        -0.3145  -11.1513   -0.2379 Br        1 <0>        -0.0246
     22 H1          1.0825    1.8914    0.1759 H         1 <0>         0.0777
     23 H2         -0.4497    1.8903   -0.7300 H         1 <0>         0.0675
     24 H3         -0.4680    1.8661    1.0497 H         1 <0>         0.0671
     25 H4          0.5974   -0.3573   -0.7498 H         1 <0>         0.0861
     26 H5          0.5792   -0.3815    1.0299 H         1 <0>         0.0859
     27 H6         -1.8926   -0.1860    1.0072 H         1 <0>         0.1304
     28 H7         -1.8744   -0.1617   -0.7725 H         1 <0>         0.1322
     29 H8          0.2291   -2.0826    1.4746 H         1 <0>         0.1388
     30 H9         -1.3969   -2.2016    2.1874 H         1 <0>         0.1331
     31 H10        -0.0514   -4.3287    0.4601 H         1 <0>         0.0961
     32 H11        -0.2465   -4.3972    2.2289 H         1 <0>         0.1209
     33 H12        -2.6973   -4.3539    1.9848 H         1 <0>         0.1081
     34 H13        -2.1270   -4.3268   -1.0152 H         1 <0>         0.0924
     35 H14        -3.7334   -4.3939   -0.2496 H         1 <0>         0.1187
     36 H15        -3.3133   -2.1998    0.8253 H         1 <0>         0.1321
     37 H16        -3.1746   -2.0794   -0.9446 H         1 <0>         0.1354
     38 H17        -1.1800   -6.4801    0.6749 H         1 <0>         0.4080
     39 H18        -1.0195   -8.3047    0.2632 H         1 <0>         0.1426
     40 H19        -2.8474  -12.1030    0.9371 H         1 <0>         0.1755
     41 H20        -5.2259   -7.5896    2.2644 H         1 <0>         0.4284
     42 H21        -5.6937   -9.9575    3.5079 H         1 <0>         0.3503
     43 H22        -6.8387   -8.7946    3.1878 H         1 <0>         0.3632
     44 H23        -0.7992   -2.3215   -0.6819 H         1 <0>         0.4229
@<TRIPOS>BOND
     1    1    2 1
     2    1   22 1
     3    1   23 1
     4    1   24 1
     5    2    3 1
     6    2   25 1
     7    2   26 1
     8    3    4 1
     9    3   27 1
    10    3   28 1
    11    4    9 1
    12    4    5 1
    13    4   44 1
    14    5    6 1
    15    5   29 1
    16    5   30 1
    17    6    7 1
    18    6   31 1
    19    6   32 1
    20    7    8 1
    21    7   10 1
    22    7   33 1
    23    8    9 1
    24    8   34 1
    25    8   35 1
    26    9   36 1
    27    9   37 1
    28   10   11 am
    29   10   38 1
    30   11   12 2
    31   11   13 1
    32   13   18 ar
    33   13   14 ar
    34   14   15 ar
    35   14   39 1
    36   15   16 ar
    37   15   21 1
    38   16   17 ar
    39   16   40 1
    40   17   18 ar
    41   18   19 1
    42   19   20 1
    43   19   41 1
    44   20   42 1
    45   20   43 1
@<TRIPOS>MOLECULE
ZINC15776817
   44    46     0     0     0
SMALL
USER_CHARGES

@<TRIPOS>ATOM
      1 C1          0.0084    1.5031    0.0069 C.3       1 <0>        -0.1212
      2 C2          0.0217   -0.0038   -0.0005 C.ar      1 <0>        -0.0822
      3 C3          0.7771   -0.6917    0.9315 C.ar      1 <0>        -0.1022
      4 C4          0.7914   -2.0727    0.9274 C.ar      1 <0>        -0.1113
      5 C5          0.0458   -2.7706   -0.0138 C.ar      1 <0>         0.1172
      6 C6         -0.7120   -2.0768   -0.9480 C.ar      1 <0>        -0.1287
      7 C7         -0.7259   -0.6958   -0.9356 C.ar      1 <0>        -0.1000
      8 N1          0.0586   -4.1697   -0.0209 N.am      1 <0>        -0.6519
      9 C8          0.1754   -4.8485    1.1376 C.2       1 <0>         0.4973
     10 O1          0.1732   -4.2513    2.1932 O.2       1 <0>        -0.4967
     11 C9          0.3087   -6.3495    1.1213 C.3       1 <0>         0.0501
     12 N2          0.4196   -6.8449    2.4955 N.pl3     1 <0>        -0.3626
     13 C10         1.6119   -7.0050    3.1819 C.ar      1 <0>         0.0711
     14 C11         2.9382   -6.7761    2.8341 C.ar      1 <0>        -0.0690
     15 C12         3.9433   -7.0326    3.7430 C.ar      1 <0>        -0.0737
     16 C13         3.6454   -7.5187    5.0065 C.ar      1 <0>        -0.0758
     17 C14         2.3357   -7.7520    5.3696 C.ar      1 <0>        -0.0531
     18 C15         1.3126   -7.4970    4.4611 C.ar      1 <0>        -0.0400
     19 C16        -0.1573   -7.6300    4.5159 C.2       1 <0>         0.0048
     20 C17        -0.6311   -7.2045    3.2733 C.2       1 <0>         0.4545
     21 O2         -1.9288   -7.1608    2.9040 O.3       1 <0>        -0.4427
     22 N3         -0.8879   -8.0657    5.5493 N.2       1 <0>        -0.0404
     23 N4         -2.1726   -8.1279    5.4503 N.pl3     1 <0>        -0.4148
     24 C18        -2.9082   -8.5667    6.4909 C.2       1 <0>         0.5147
     25 N5         -2.3016   -8.9404    7.6349 N.pl3     1 <0>        -0.7507
     26 S1         -4.6132   -8.6493    6.3595 S.2       1 <0>        -0.4186
     27 H1         -0.7937    1.8562    0.6550 H         1 <0>         0.0753
     28 H2          0.9644    1.8731    0.3775 H         1 <0>         0.0705
     29 H3         -0.1551    1.8700   -1.0064 H         1 <0>         0.0714
     30 H4          1.3567   -0.1484    1.6631 H         1 <0>         0.1299
     31 H5          1.3821   -2.6094    1.6550 H         1 <0>         0.1304
     32 H6         -1.2926   -2.6167   -1.6815 H         1 <0>         0.1294
     33 H7         -1.3183   -0.1557   -1.6593 H         1 <0>         0.1330
     34 H8         -0.0167   -4.6512   -0.8596 H         1 <0>         0.4172
     35 H9         -0.5697   -6.7872    0.6470 H         1 <0>         0.1525
     36 H10         1.2011   -6.6289    0.5612 H         1 <0>         0.1600
     37 H11         3.1815   -6.3978    1.8523 H         1 <0>         0.1465
     38 H12         4.9721   -6.8533    3.4676 H         1 <0>         0.1572
     39 H13         4.4418   -7.7158    5.7089 H         1 <0>         0.1561
     40 H14         2.1050   -8.1308    6.3543 H         1 <0>         0.1530
     41 H15        -2.2484   -7.9756    2.4928 H         1 <0>         0.4462
     42 H16        -1.3356   -8.8936    7.7094 H         1 <0>         0.4155
     43 H17        -2.8311   -9.2562    8.3839 H         1 <0>         0.4498
     44 H18        -2.6091   -7.8590    4.6269 H         1 <0>         0.4318
@<TRIPOS>BOND
     1    1    2 1
     2    1   27 1
     3    1   28 1
     4    1   29 1
     5    2    7 ar
     6    2    3 ar
     7    3    4 ar
     8    3   30 1
     9    4    5 ar
    10    4   31 1
    11    5    6 ar
    12    5    8 1
    13    6    7 ar
    14    6   32 1
    15    7   33 1
    16    8    9 am
    17    8   34 1
    18    9   10 2
    19    9   11 1
    20   11   12 1
    21   11   35 1
    22   11   36 1
    23   12   20 1
    24   12   13 1
    25   13   18 ar
    26   13   14 ar
    27   14   15 ar
    28   14   37 1
    29   15   16 ar
    30   15   38 1
    31   16   17 ar
    32   16   39 1
    33   17   18 ar
    34   17   40 1
    35   18   19 1
    36   19   20 2
    37   19   22 1
    38   20   21 1
    39   21   41 1
    40   22   23 2
    41   23   24 1
    42   23   44 1
    43   24   25 1
    44   24   26 2
    45   25   42 1
    46   25   43 1
@<TRIPOS>MOLECULE
ZINC09059024
   62    65     0     0     0
SMALL
USER_CHARGES
carbamoylmethyl-N-(2,5-dimethoxyphenyl)-dimethyl-oxo-BLAHcarboxamide
@<TRIPOS>ATOM
      1 C1         -3.7053    5.8503   -6.1702 C.3       1 <0>        -0.1219
      2 C2         -4.5345    5.2467   -5.0661 C.ar      1 <0>        -0.0809
      3 C3         -5.8421    4.8676   -5.3092 C.ar      1 <0>        -0.0541
      4 C4         -6.6060    4.3149   -4.3025 C.ar      1 <0>        -0.0785
      5 C5         -6.0648    4.1336   -3.0316 C.ar      1 <0>         0.1584
      6 C6         -4.7490    4.5198   -2.7986 C.ar      1 <0>        -0.1930
      7 C7         -3.9896    5.0708   -3.8065 C.ar      1 <0>        -0.0554
      8 C8         -4.4726    4.2006   -1.3542 C.3       1 <0>         0.0925
      9 C9         -4.1025    5.4667   -0.5723 C.3       1 <0>        -0.1071
     10 H1         -4.0483    6.3243   -1.2428 H         1 <0>         0.1467
     11 C10        -2.7109    5.1655    0.0344 C.3       1 <0>        -0.1197
     12 C11        -2.6618    3.6163    0.0378 C.3       1 <0>         0.0439
     13 H2         -3.1918    3.2145    0.9014 H         1 <0>         0.1668
     14 C12        -1.2138    3.1224    0.0179 C.3       1 <0>        -0.1622
     15 C13        -1.1968    1.6156    0.0312 C.2       1 <0>         0.5101
     16 O1         -2.2401    0.9976    0.0542 O.2       1 <0>        -0.5513
     17 N1         -0.0223    0.9548    0.0174 N.am      1 <0>        -0.8363
     18 C14        -5.1077    5.7201    0.5215 C.2       1 <0>         0.5027
     19 O2         -4.9807    5.1785    1.5994 O.2       1 <0>        -0.4753
     20 N2         -6.1479    6.5485    0.3021 N.am      1 <0>        -0.6454
     21 C15        -7.0360    6.8490    1.3433 C.ar      1 <0>         0.1428
     22 C16        -7.2008    5.9591    2.3944 C.ar      1 <0>        -0.1285
     23 C17        -8.0763    6.2615    3.4258 C.ar      1 <0>         0.1162
     24 C18        -8.7955    7.4474    3.4014 C.ar      1 <0>        -0.1771
     25 C19        -8.6370    8.3334    2.3523 C.ar      1 <0>        -0.1463
     26 C20        -7.7593    8.0390    1.3219 C.ar      1 <0>         0.0692
     27 O3         -7.6035    8.9119    0.2899 O.3       1 <0>        -0.3236
     28 C21        -8.3772   10.1125    0.3334 C.3       1 <0>         0.0281
     29 O4         -8.2339    5.3925    4.4598 O.3       1 <0>        -0.3121
     30 C22        -9.1564    5.7652    5.4855 C.3       1 <0>         0.0252
     31 C23        -5.7580    3.6063   -0.8388 C.2       1 <0>         0.5107
     32 O5         -5.9699    3.2070    0.2867 O.2       1 <0>        -0.4148
     33 N3         -6.6258    3.6039   -1.8679 N.am      1 <0>        -0.6424
     34 C24        -8.0297    3.9049   -4.5784 C.3       1 <0>        -0.1270
     35 H3         -3.1829    5.0582   -6.7068 H         1 <0>         0.0809
     36 H4         -4.3552    6.3889   -6.8598 H         1 <0>         0.0782
     37 H5         -2.9778    6.5403   -5.7426 H         1 <0>         0.0747
     38 H6         -6.2675    5.0055   -6.2923 H         1 <0>         0.1473
     39 H7         -2.9687    5.3659   -3.6136 H         1 <0>         0.1396
     40 H8         -2.6400    5.5558    1.0496 H         1 <0>         0.1365
     41 H9         -1.9196    5.5750   -0.5935 H         1 <0>         0.1187
     42 H10        -0.6893    3.4995    0.8959 H         1 <0>         0.1507
     43 H11        -0.7192    3.4835   -0.8838 H         1 <0>         0.1241
     44 H12        -0.0113   -0.0151    0.0259 H         1 <0>         0.4155
     45 H13         0.8121    1.4491   -0.0051 H         1 <0>         0.4110
     46 H14        -6.2817    6.9368   -0.5767 H         1 <0>         0.4171
     47 H15        -6.6443    5.0337    2.4115 H         1 <0>         0.1699
     48 H16        -9.4804    7.6790    4.2037 H         1 <0>         0.1366
     49 H17        -9.1982    9.2560    2.3358 H         1 <0>         0.1396
     50 H18        -9.4377    9.8611    0.3468 H         1 <0>         0.0578
     51 H19        -8.1256   10.6745    1.2328 H         1 <0>         0.0585
     52 H20        -8.1583   10.7178   -0.5463 H         1 <0>         0.1037
     53 H21       -10.1494    5.8896    5.0535 H         1 <0>         0.0571
     54 H22        -9.1867    4.9863    6.2474 H         1 <0>         0.1044
     55 H23        -8.8369    6.7039    5.9380 H         1 <0>         0.0576
     56 H24        -7.5355    3.2728   -1.8078 H         1 <0>         0.4338
     57 H25        -8.0506    2.8684   -4.9151 H         1 <0>         0.0835
     58 H26        -8.6191    4.0027   -3.6667 H         1 <0>         0.0679
     59 H27        -8.4491    4.5471   -5.3529 H         1 <0>         0.0847
     60 N4         -3.3651    3.2676   -1.2065 N.4       1 <0>        -0.4887
     61 H28        -2.7264    3.3509   -2.0061 H         1 <0>         0.4329
     62 H29        -3.7206    2.3059   -1.1513 H         1 <0>         0.4460
@<TRIPOS>BOND
     1    1    2 1
     2    1   35 1
     3    1   36 1
     4    1   37 1
     5    2    7 ar
     6    2    3 ar
     7    3    4 ar
     8    3   38 1
     9    4    5 ar
    10    4   34 1
    11    5   33 1
    12    5    6 ar
    13    6    7 ar
    14    6    8 1
    15    7   39 1
    16    8    9 1
    17    8   31 1
    18    8   60 1
    19    9   10 1
    20    9   11 1
    21    9   18 1
    22   11   12 1
    23   11   40 1
    24   11   41 1
    25   12   13 1
    26   12   14 1
    27   12   60 1
    28   14   15 1
    29   14   42 1
    30   14   43 1
    31   15   16 2
    32   15   17 am
    33   17   44 1
    34   17   45 1
    35   18   19 2
    36   18   20 am
    37   20   21 1
    38   20   46 1
    39   21   26 ar
    40   21   22 ar
    41   22   23 ar
    42   22   47 1
    43   23   24 ar
    44   23   29 1
    45   24   25 ar
    46   24   48 1
    47   25   26 ar
    48   25   49 1
    49   26   27 1
    50   27   28 1
    51   28   50 1
    52   28   51 1
    53   28   52 1
    54   29   30 1
    55   30   53 1
    56   30   54 1
    57   30   55 1
    58   31   32 2
    59   31   33 am
    60   33   56 1
    61   34   57 1
    62   34   58 1
    63   34   59 1
    64   60   61 1
    65   60   62 1
@<TRIPOS>MOLECULE
ZINC19808468
   49    52     0     0     0
SMALL
USER_CHARGES
3-(4-amino-1,2,5-oxadiazol-3-yl)-N-[(2-hydroxyphenyl)methyleneamino]-5-(pyrrolidin-1-ylmethyl)triazole-4-carboxamide
@<TRIPOS>ATOM
      1 C1         -1.7410    3.8935   -3.3982 C.ar      1 <0>        -0.1733
      2 C2         -2.3551    3.5953   -2.1937 C.ar      1 <0>        -0.0380
      3 C3         -1.7862    3.9984   -1.0004 C.ar      1 <0>        -0.1800
      4 C4         -0.6007    4.7150   -1.0030 C.ar      1 <0>         0.2254
      5 C5          0.0216    5.0242   -2.2202 C.ar      1 <0>        -0.1957
      6 C6         -0.5605    4.6061   -3.4192 C.ar      1 <0>        -0.0339
      7 C7          1.2832    5.7856   -2.2350 C.2       1 <0>         0.1983
      8 N1          1.8211    6.1724   -1.1185 N.2       1 <0>        -0.2962
      9 N2          3.0206    6.8963   -1.1326 N.am      1 <0>        -0.5589
     10 C8          3.5790    7.2978    0.0264 C.2       1 <0>         0.6008
     11 O1          2.9956    7.1147    1.0784 O.2       1 <0>        -0.4721
     12 C9          4.8938    7.9575    0.0197 C.2       1 <0>         0.0077
     13 C10         5.1462    9.3036    0.0759 C.2       1 <0>        -0.0247
     14 N3          6.4725    9.4389    0.0450 N.2       1 <0>        -0.1977
     15 N4          7.0206    8.2788   -0.0250 N.2       1 <0>        -0.0175
     16 N5          6.1259    7.3535   -0.0381 N.pl3     1 <0>        -0.1940
     17 C11         6.3658    5.9775   -0.1024 C.2       1 <0>         0.2496
     18 C12         7.6812    5.3327   -0.0517 C.2       1 <0>         0.3678
     19 N6          7.5090    4.0423   -0.1387 N.2       1 <0>        -0.3260
     20 O2          6.1180    3.7964   -0.2465 O.3       1 <0>         0.0797
     21 N7          5.4577    5.0493   -0.2119 N.2       1 <0>        -0.2368
     22 N8          8.9033    5.9846    0.0681 N.pl3     1 <0>        -0.8259
     23 C13         4.1272   10.4108    0.1570 C.3       1 <0>         0.0863
     24 N9          3.8355   10.7055    1.5663 N.4       1 <0>        -0.4149
     25 C14         5.0856   10.9612    2.3265 C.3       1 <0>        -0.0026
     26 C15         4.5910   11.7418    3.5701 C.3       1 <0>        -0.1418
     27 C16         3.4686   12.6351    2.9936 C.3       1 <0>        -0.1408
     28 C17         3.0269   11.9374    1.6938 C.3       1 <0>         0.0006
     29 O3         -0.0436    5.1159    0.1689 O.3       1 <0>        -0.5179
     30 H1         -2.1906    3.5705   -4.3255 H         1 <0>         0.1339
     31 H2         -3.2820    3.0410   -2.1865 H         1 <0>         0.1366
     32 H3         -2.2689    3.7581   -0.0646 H         1 <0>         0.1367
     33 H4         -0.0871    4.8408   -4.3610 H         1 <0>         0.1328
     34 H5          1.7692    6.0262   -3.1920 H         1 <0>         0.1416
     35 H6          3.5066    7.1369   -2.0896 H         1 <0>         0.4183
     36 H7          9.8365    5.4029    0.0968 H         1 <0>         0.4567
     37 H8          8.9371    7.0821    0.1341 H         1 <0>         0.4515
     38 H9          4.5257   11.3123   -0.3313 H         1 <0>         0.1610
     39 H10         3.2033   10.0968   -0.3508 H         1 <0>         0.1504
     40 H11         5.5564   10.0029    2.5909 H         1 <0>         0.1217
     41 H12         5.7773   11.5510    1.7071 H         1 <0>         0.1388
     42 H13         4.2217   11.0324    4.3253 H         1 <0>         0.0981
     43 H14         5.4227   12.3257    3.9912 H         1 <0>         0.1181
     44 H15         2.6436   12.7008    3.7183 H         1 <0>         0.1084
     45 H16         3.8656   13.6421    2.7977 H         1 <0>         0.1077
     46 H17         3.2077   12.5863    0.8242 H         1 <0>         0.1340
     47 H18         1.9601   11.6728    1.7384 H         1 <0>         0.1356
     48 H19         0.8978    5.6848    0.1641 H         1 <0>         0.4366
     49 H20         3.2957    9.8273    1.9503 H         1 <0>         0.4543
@<TRIPOS>BOND
     1    1    6 ar
     2    1    2 ar
     3    1   30 1
     4    2    3 ar
     5    2   31 1
     6    3    4 ar
     7    3   32 1
     8    4    5 ar
     9    4   29 1
    10    5    6 ar
    11    5    7 1
    12    6   33 1
    13    7    8 2
    14    7   34 1
    15    8    9 1
    16    9   10 am
    17    9   35 1
    18   10   11 2
    19   10   12 1
    20   12   16 1
    21   12   13 2
    22   13   14 1
    23   13   23 1
    24   14   15 2
    25   15   16 1
    26   16   17 1
    27   17   21 2
    28   17   18 1
    29   18   19 2
    30   18   22 1
    31   19   20 1
    32   20   21 1
    33   22   36 1
    34   22   37 1
    35   23   24 1
    36   23   38 1
    37   23   39 1
    38   24   28 1
    39   24   25 1
    40   24   49 1
    41   25   26 1
    42   25   40 1
    43   25   41 1
    44   26   27 1
    45   26   42 1
    46   26   43 1
    47   27   28 1
    48   27   44 1
    49   27   45 1
    50   28   46 1
    51   28   47 1
    52   29   48 1
@<TRIPOS>MOLECULE
ZINC40756486
   57    59     0     0     0
SMALL
USER_CHARGES

@<TRIPOS>ATOM
      1 C1         -2.3254    0.8693    1.9569 C.3       1 <0>        -0.1546
      2 C2         -1.8491   -0.5304    1.5633 C.3       1 <0>         0.0621
      3 O1         -0.6940   -0.8739    2.3312 O.3       1 <0>        -0.3424
      4 C3         -0.1461   -2.0841    2.1043 C.2       1 <0>         0.5215
      5 O2         -0.6358   -2.8273    1.2769 O.2       1 <0>        -0.5255
      6 C4          1.0465   -2.5059    2.8591 C.ar      1 <0>        -0.1740
      7 C5          1.6709   -1.6191    3.7409 C.ar      1 <0>        -0.0373
      8 C6          2.7857   -2.0199    4.4436 C.ar      1 <0>        -0.1519
      9 C7          3.2937   -3.2995    4.2813 C.ar      1 <0>        -0.0558
     10 C8          2.6894   -4.1865    3.4146 C.ar      1 <0>        -0.1326
     11 C9          1.5599   -3.8033    2.7017 C.ar      1 <0>         0.2324
     12 N1          0.9458   -4.6968    1.8328 N.pl3     1 <0>        -0.6403
     13 C10         0.9149   -6.0535    2.1378 C.ar      1 <0>         0.3924
     14 C11         0.4063   -6.9748    1.2206 C.ar      1 <0>         0.0228
     15 C12         0.3992   -8.3248    1.5772 C.ar      1 <0>         0.3917
     16 N2          0.8740   -8.6791    2.7689 N.ar      1 <0>        -0.5692
     17 C13         1.3454   -7.7770    3.6056 C.ar      1 <0>         0.3247
     18 N3          1.3749   -6.4941    3.3064 N.ar      1 <0>        -0.5497
     19 N4         -0.0963   -9.2834    0.7015 N.pl3     1 <0>        -0.7221
     20 C14        -0.0984  -10.6967    1.0873 C.3       1 <0>         0.1172
     21 C15        -0.6919  -11.5342   -0.0473 C.3       1 <0>        -0.0244
     22 N5         -0.6939  -12.9513    0.3396 N.4       1 <0>        -0.3773
     23 C16         0.6895  -13.4167    0.4944 C.3       1 <0>        -0.0145
     24 C17         0.6922  -14.8692    0.9757 C.3       1 <0>        -0.1455
     25 C18        -0.0301  -15.7436   -0.0533 C.3       1 <0>        -0.1399
     26 C19        -1.4480  -15.2039   -0.2618 C.3       1 <0>        -0.1463
     27 C20        -1.3714  -13.7390   -0.6973 C.3       1 <0>        -0.0058
     28 N6         -0.0849   -6.5555   -0.0259 N.pl3     1 <0>        -0.8722
     29 H1         -1.5321    1.5911    1.7626 H         1 <0>         0.0692
     30 H2         -3.2065    1.1313    1.3712 H         1 <0>         0.0825
     31 H3         -2.5770    0.8827    3.0174 H         1 <0>         0.0687
     32 H4         -2.6424   -1.2521    1.7577 H         1 <0>         0.0681
     33 H5         -1.5976   -0.5437    0.5029 H         1 <0>         0.0693
     34 H6          1.2799   -0.6208    3.8708 H         1 <0>         0.1420
     35 H7          3.2668   -1.3334    5.1245 H         1 <0>         0.1350
     36 H8          4.1685   -3.6038    4.8367 H         1 <0>         0.1347
     37 H9          3.0920   -5.1813    3.2934 H         1 <0>         0.1430
     38 H10         0.5386   -4.3745    1.0135 H         1 <0>         0.4268
     39 H11         1.7226   -8.0994    4.5649 H         1 <0>         0.2009
     40 H12        -0.4409   -9.0167   -0.1651 H         1 <0>         0.4089
     41 H13         0.9236  -11.0215    1.2824 H         1 <0>         0.0861
     42 H14        -0.6991  -10.8267    1.9875 H         1 <0>         0.0855
     43 H15        -1.7139  -11.2093   -0.2424 H         1 <0>         0.1361
     44 H16        -0.0912  -11.4041   -0.9475 H         1 <0>         0.1347
     45 H17         1.2038  -13.3512   -0.4644 H         1 <0>         0.1294
     46 H18         1.2032  -12.7914    1.2246 H         1 <0>         0.1344
     47 H19         1.7203  -15.2134    1.0883 H         1 <0>         0.1133
     48 H20         0.1783  -14.9358    1.9347 H         1 <0>         0.0891
     49 H21         0.5124  -15.7178   -0.9984 H         1 <0>         0.0817
     50 H22        -0.0805  -16.7695    0.3114 H         1 <0>         0.0950
     51 H23        -1.9497  -15.7874   -1.0338 H         1 <0>         0.1130
     52 H24        -2.0063  -15.2775    0.6715 H         1 <0>         0.0887
     53 H25        -2.3792  -13.3517   -0.8468 H         1 <0>         0.1306
     54 H26        -0.8131  -13.6667   -1.6307 H         1 <0>         0.1290
     55 H27        -0.0739   -5.6142   -0.2599 H         1 <0>         0.4025
     56 H28        -0.4354   -7.2071   -0.6533 H         1 <0>         0.3933
     57 H29        -1.1829  -13.0591    1.2156 H         1 <0>         0.4252
@<TRIPOS>BOND
     1    1    2 1
     2    1   29 1
     3    1   30 1
     4    1   31 1
     5    2    3 1
     6    2   32 1
     7    2   33 1
     8    3    4 1
     9    4    5 2
    10    4    6 1
    11    6   11 ar
    12    6    7 ar
    13    7    8 ar
    14    7   34 1
    15    8    9 ar
    16    8   35 1
    17    9   10 ar
    18    9   36 1
    19   10   11 ar
    20   10   37 1
    21   11   12 1
    22   12   13 1
    23   12   38 1
    24   13   18 ar
    25   13   14 ar
    26   14   15 ar
    27   14   28 1
    28   15   16 ar
    29   15   19 1
    30   16   17 ar
    31   17   18 ar
    32   17   39 1
    33   19   20 1
    34   19   40 1
    35   20   21 1
    36   20   41 1
    37   20   42 1
    38   21   22 1
    39   21   43 1
    40   21   44 1
    41   22   27 1
    42   22   23 1
    43   22   57 1
    44   23   24 1
    45   23   45 1
    46   23   46 1
    47   24   25 1
    48   24   47 1
    49   24   48 1
    50   25   26 1
    51   25   49 1
    52   25   50 1
    53   26   27 1
    54   26   51 1
    55   26   52 1
    56   27   53 1
    57   27   54 1
    58   28   55 1
    59   28   56 1
@<TRIPOS>MOLECULE
ZINC43554320
   80    82     0     0     0
SMALL
USER_CHARGES

@<TRIPOS>ATOM
      1 C1          0.7828    1.1893   -1.0826 C.3       1 <0>        -0.1545
      2 C2          0.6669   -0.3287   -0.9306 C.3       1 <0>        -0.1268
      3 C3         -0.8099   -0.7241   -0.8720 C.3       1 <0>        -0.1192
      4 C4         -0.9258   -2.2422   -0.7201 C.3       1 <0>        -0.1096
      5 C5         -2.4026   -2.6376   -0.6615 C.3       1 <0>        -0.1289
      6 C6         -2.5167   -4.1328   -0.5118 C.2       1 <0>         0.5093
      7 O1         -1.5154   -4.8150   -0.4574 O.2       1 <0>        -0.4936
      8 N1         -3.7315   -4.7120   -0.4385 N.am      1 <0>        -0.6148
      9 C7         -3.8367   -6.0912   -0.3004 C.2       1 <0>         0.2304
     10 N2         -4.9272   -6.8220   -0.2132 N.2       1 <0>        -0.5275
     11 C8         -4.8719   -8.1407   -0.0770 C.2       1 <0>         0.0905
     12 C9         -3.6238   -8.6701   -0.0432 C.2       1 <0>        -0.2419
     13 S1         -2.6001   -7.2321   -0.2041 S.3       1 <0>         0.2220
     14 C10        -3.2409  -10.0991    0.0918 C.3       1 <0>        -0.0410
     15 C11        -4.4637  -11.0180    0.2771 C.3       1 <0>        -0.0437
     16 H1         -4.7007  -11.0629    1.3575 H         1 <0>         0.0785
     17 C12        -5.6738  -10.4653   -0.4660 C.3       1 <0>        -0.0361
     18 C13        -6.0574   -9.0754    0.0535 C.3       1 <0>         0.0203
     19 H2         -6.3238   -9.1695    1.1133 H         1 <0>         0.0921
     20 C14        -7.2588   -8.5275   -0.7107 C.3       1 <0>        -0.1301
     21 C15        -7.7366   -7.2587   -0.0528 C.2       1 <0>         0.5262
     22 O2         -7.1692   -6.8355    0.9321 O.2       1 <0>        -0.4927
     23 N3         -8.7943   -6.5942   -0.5588 N.am      1 <0>        -0.7436
     24 C16        -9.2587   -5.3607    0.0807 C.3       1 <0>         0.0998
     25 C17       -10.4636   -4.8113   -0.6856 C.3       1 <0>        -0.0230
     26 N4        -10.9293   -3.5744   -0.0443 N.4       1 <0>        -0.3833
     27 C18        -9.8910   -2.5417   -0.1604 C.3       1 <0>        -0.0550
     28 C19       -12.1564   -3.1117   -0.7062 C.3       1 <0>        -0.0466
     29 C20        -5.3789  -10.4498   -1.9611 C.3       1 <0>        -0.1020
     30 C21        -5.1486  -11.8819   -2.4442 C.3       1 <0>        -0.1505
     31 C22        -4.0070  -12.5545   -1.7055 C.3       1 <0>         0.1268
     32 H3         -4.0471  -13.6367   -1.9402 H         1 <0>         0.0535
     33 C23        -4.0506  -12.4115   -0.1934 C.3       1 <0>        -0.0344
     34 C24        -4.9309  -13.5100    0.4172 C.3       1 <0>        -0.1502
     35 C25        -2.6196  -12.6979    0.3334 C.3       1 <0>         0.0810
     36 O3         -2.2064  -13.9978   -0.0926 O.3       1 <0>        -0.5680
     37 O4         -2.7549  -12.0756   -2.2107 O.3       1 <0>        -0.5630
     38 C26        -6.9229  -11.3250   -0.2202 C.3       1 <0>        -0.1633
     39 H4          1.8349    1.4711   -1.1243 H         1 <0>         0.0563
     40 H5          0.2864    1.5015   -2.0014 H         1 <0>         0.0534
     41 H6          0.3096    1.6770   -0.2302 H         1 <0>         0.0534
     42 H7          1.1401   -0.8163   -1.7829 H         1 <0>         0.0635
     43 H8          1.1634   -0.6408   -0.0118 H         1 <0>         0.0635
     44 H9         -1.2831   -0.2365   -0.0197 H         1 <0>         0.0629
     45 H10        -1.3063   -0.4120   -1.7908 H         1 <0>         0.0628
     46 H11        -0.4526   -2.7298   -1.5724 H         1 <0>         0.0745
     47 H12        -0.4293   -2.5543    0.1988 H         1 <0>         0.0745
     48 H13        -2.8758   -2.1500    0.1908 H         1 <0>         0.1011
     49 H14        -2.8990   -2.3255   -1.5803 H         1 <0>         0.1009
     50 H15        -4.5323   -4.1664   -0.4820 H         1 <0>         0.4170
     51 H16        -2.6863  -10.3822   -0.8047 H         1 <0>         0.1067
     52 H17        -2.5835  -10.1890    0.9646 H         1 <0>         0.0760
     53 H18        -6.9692   -8.3163   -1.7400 H         1 <0>         0.0976
     54 H19        -8.0614   -9.2651   -0.7031 H         1 <0>         0.1049
     55 H20        -9.2481   -6.9326   -1.3465 H         1 <0>         0.4037
     56 H21        -9.5484   -5.5720    1.1101 H         1 <0>         0.0843
     57 H22        -8.4562   -4.6231    0.0732 H         1 <0>         0.0851
     58 H23       -10.1739   -4.6000   -1.7150 H         1 <0>         0.1357
     59 H24       -11.2661   -5.5488   -0.6781 H         1 <0>         0.1374
     60 H25        -8.9805   -2.8851    0.3307 H         1 <0>         0.1255
     61 H26        -9.6856   -2.3498   -1.2136 H         1 <0>         0.1240
     62 H27       -10.2366   -1.6240    0.3154 H         1 <0>         0.1280
     63 H28       -12.9268   -3.8779   -0.6200 H         1 <0>         0.1249
     64 H29       -12.5019   -2.1939   -0.2303 H         1 <0>         0.1276
     65 H30       -11.9510   -2.9198   -1.7593 H         1 <0>         0.1232
     66 H31        -6.2167  -10.0278   -2.5169 H         1 <0>         0.0604
     67 H32        -4.4867   -9.8525   -2.1565 H         1 <0>         0.0711
     68 H33        -6.0592  -12.4711   -2.3617 H         1 <0>         0.0745
     69 H34        -4.8942  -11.8401   -3.5167 H         1 <0>         0.0629
     70 H35        -5.9464  -13.4177    0.0322 H         1 <0>         0.0638
     71 H36        -4.5289  -14.4876    0.1512 H         1 <0>         0.0712
     72 H37        -4.9427  -13.4050    1.5021 H         1 <0>         0.0598
     73 H38        -1.9310  -11.9505   -0.0606 H         1 <0>         0.0613
     74 H39        -2.6180  -12.6550    1.4226 H         1 <0>         0.0387
     75 H40        -1.3188  -14.2444    0.2014 H         1 <0>         0.3796
     76 H41        -2.6206  -12.2448   -3.1533 H         1 <0>         0.3757
     77 H42        -7.0678  -11.4572    0.8520 H         1 <0>         0.0607
     78 H43        -7.7950  -10.8289   -0.6462 H         1 <0>         0.0605
     79 H44        -6.7923  -12.2988   -0.6921 H         1 <0>         0.0742
     80 H45       -11.1195   -3.7520    0.9306 H         1 <0>         0.4300
@<TRIPOS>BOND
     1    1    2 1
     2    1   39 1
     3    1   40 1
     4    1   41 1
     5    2    3 1
     6    2   42 1
     7    2   43 1
     8    3    4 1
     9    3   44 1
    10    3   45 1
    11    4    5 1
    12    4   46 1
    13    4   47 1
    14    5    6 1
    15    5   48 1
    16    5   49 1
    17    6    7 2
    18    6    8 am
    19    8    9 1
    20    8   50 1
    21    9   13 1
    22    9   10 2
    23   10   11 1
    24   11   18 1
    25   11   12 2
    26   12   13 1
    27   12   14 1
    28   14   15 1
    29   14   51 1
    30   14   52 1
    31   15   16 1
    32   15   33 1
    33   15   17 1
    34   17   18 1
    35   17   29 1
    36   17   38 1
    37   18   19 1
    38   18   20 1
    39   20   21 1
    40   20   53 1
    41   20   54 1
    42   21   22 2
    43   21   23 am
    44   23   24 1
    45   23   55 1
    46   24   25 1
    47   24   56 1
    48   24   57 1
    49   25   26 1
    50   25   58 1
    51   25   59 1
    52   26   27 1
    53   26   28 1
    54   26   80 1
    55   27   60 1
    56   27   61 1
    57   27   62 1
    58   28   63 1
    59   28   64 1
    60   28   65 1
    61   29   30 1
    62   29   66 1
    63   29   67 1
    64   30   31 1
    65   30   68 1
    66   30   69 1
    67   31   32 1
    68   31   33 1
    69   31   37 1
    70   33   34 1
    71   33   35 1
    72   34   70 1
    73   34   71 1
    74   34   72 1
    75   35   36 1
    76   35   73 1
    77   35   74 1
    78   36   75 1
    79   37   76 1
    80   38   77 1
    81   38   78 1
    82   38   79 1
@<TRIPOS>MOLECULE
ZINC05024074
   45    46     0     0     0
SMALL
USER_CHARGES

@<TRIPOS>ATOM
      1 C1          1.5235   -6.6593    4.8363 C.3       1 <0>        -0.1287
      2 C2          1.1203   -5.9972    3.5440 C.ar      1 <0>        -0.0541
      3 C3          1.5363   -6.5293    2.3370 C.ar      1 <0>        -0.0867
      4 C4          1.1692   -5.9251    1.1510 C.ar      1 <0>        -0.1512
      5 C5          0.3803   -4.7812    1.1710 C.ar      1 <0>         0.0904
      6 C6         -0.0362   -4.2497    2.3852 C.ar      1 <0>        -0.0683
      7 C7          0.3305   -4.8624    3.5674 C.ar      1 <0>        -0.0877
      8 C8         -0.8917   -3.0094    2.4120 C.3       1 <0>        -0.1269
      9 N1          0.0074   -4.1671   -0.0265 N.pl3     1 <0>        -0.5750
     10 C9          0.1635   -4.8476   -1.2406 C.cat     1 <0>         0.4484
     11 N2          0.2807   -4.1745   -2.3584 N.pl3     1 <0>        -0.3528
     12 N3          0.3271   -4.8531   -3.5831 N.pl3     1 <0>        -0.5281
     13 C10         0.5593   -4.1464   -4.7642 C.ar      1 <0>         0.1748
     14 C11         0.7497   -2.7736   -4.7247 C.ar      1 <0>        -0.1268
     15 C12         0.9820   -2.0716   -5.9078 C.ar      1 <0>        -0.0726
     16 C13         1.0212   -2.7567   -7.1257 C.ar      1 <0>         0.0037
     17 C14         0.8303   -4.1244   -7.1550 C.ar      1 <0>        -0.0539
     18 C15         0.6054   -4.8209   -5.9816 C.ar      1 <0>        -0.0388
     19 Cl1         0.3737   -6.5408   -6.0272 Cl        1 <0>        -0.0220
     20 Cl2         1.3092   -1.8886   -8.6012 Cl        1 <0>         0.0138
     21 C16         1.1853   -0.6088   -5.8737 C.2       1 <0>         0.5526
     22 O1          1.3875    0.0010   -6.9057 O.2       1 <0>        -0.4880
     23 N4          1.1466    0.0497   -4.6984 N.am      1 <0>        -0.8465
     24 C17         0.1947   -6.2625   -1.2600 C.2       1 <0>         0.3494
     25 O2         -0.7734   -6.8963   -0.8913 O.2       1 <0>        -0.3392
     26 C18         1.4292   -6.9825   -1.7382 C.3       1 <0>        -0.2179
     27 H1          0.7773   -7.4050    5.1107 H         1 <0>         0.0848
     28 H2          2.4917   -7.1435    4.7098 H         1 <0>         0.0778
     29 H3          1.5929   -5.9082    5.6231 H         1 <0>         0.0780
     30 H4          2.1494   -7.4183    2.3222 H         1 <0>         0.1449
     31 H5          1.4950   -6.3407    0.2090 H         1 <0>         0.1329
     32 H6          0.0038   -4.4521    4.5115 H         1 <0>         0.1465
     33 H7         -1.9438   -3.2930    2.3834 H         1 <0>         0.0881
     34 H8         -0.6911   -2.4493    3.3253 H         1 <0>         0.0916
     35 H9         -0.6591   -2.3888    1.5467 H         1 <0>         0.0594
     36 H10        -0.3597   -3.2693   -0.0174 H         1 <0>         0.4378
     37 H11         0.1978   -5.8141   -3.6104 H         1 <0>         0.4485
     38 H12         0.7180   -2.2493   -3.7810 H         1 <0>         0.1358
     39 H13         0.8606   -4.6520   -8.0968 H         1 <0>         0.1727
     40 H14         0.9853   -0.4369   -3.8749 H         1 <0>         0.3922
     41 H15         1.2801    1.0102   -4.6760 H         1 <0>         0.4169
     42 H16         2.2187   -6.2576   -1.9364 H         1 <0>         0.1040
     43 H17         1.7621   -7.6816   -0.9710 H         1 <0>         0.1376
     44 H18         1.1997   -7.5290   -2.6529 H         1 <0>         0.1282
     45 H19         0.3353   -3.2062   -2.3380 H         1 <0>         0.4542
@<TRIPOS>BOND
     1    1    2 1
     2    1   27 1
     3    1   28 1
     4    1   29 1
     5    2    7 ar
     6    2    3 ar
     7    3    4 ar
     8    3   30 1
     9    4    5 ar
    10    4   31 1
    11    5    6 ar
    12    5    9 1
    13    6    7 ar
    14    6    8 1
    15    7   32 1
    16    8   33 1
    17    8   34 1
    18    8   35 1
    19    9   10 1
    20    9   36 1
    21   10   11 2
    22   10   24 1
    23   11   12 1
    24   11   45 1
    25   12   13 1
    26   12   37 1
    27   13   18 ar
    28   13   14 ar
    29   14   15 ar
    30   14   38 1
    31   15   16 ar
    32   15   21 1
    33   16   17 ar
    34   16   20 1
    35   17   18 ar
    36   17   39 1
    37   18   19 1
    38   21   22 2
    39   21   23 am
    40   23   40 1
    41   23   41 1
    42   24   25 2
    43   24   26 1
    44   26   42 1
    45   26   43 1
    46   26   44 1
@<TRIPOS>MOLECULE
ZINC05278281
   42    43     0     0     0
SMALL
USER_CHARGES
(3-carbamoyl-2-thienyl)carbamoylmethyl 2-(2-hydroxyethylamino)benzoate
@<TRIPOS>ATOM
      1 C1         -5.7199   -1.6571   -0.0849 C.ar      1 <0>        -0.1981
      2 C2         -7.0058   -1.1496    0.0184 C.ar      1 <0>        -0.0260
      3 C3         -7.2138    0.2094    0.1313 C.ar      1 <0>        -0.2180
      4 C4         -6.1314    1.0808    0.1428 C.ar      1 <0>         0.2862
      5 C5         -4.8277    0.5702    0.0388 C.ar      1 <0>        -0.2236
      6 C6         -4.6345   -0.8093   -0.0808 C.ar      1 <0>        -0.0074
      7 C7         -3.6713    1.4823    0.0496 C.2       1 <0>         0.5275
      8 O1         -3.8459    2.6849    0.0460 O.2       1 <0>        -0.5203
      9 O2         -2.4195    0.9833    0.0635 O.3       1 <0>        -0.3254
     10 C8         -1.3281    1.9409    0.0736 C.3       1 <0>         0.0569
     11 C9         -0.0135    1.2042    0.0885 C.2       1 <0>         0.5087
     12 O3          0.0020   -0.0085    0.0904 O.2       1 <0>        -0.4739
     13 N1          1.1449    1.8931    0.0940 N.am      1 <0>        -0.6077
     14 C10         2.3545    1.2152    0.1019 C.2       1 <0>         0.1177
     15 C11         3.6401    1.7433    0.1028 C.2       1 <0>        -0.2608
     16 C12         4.7305    0.7975    0.1165 C.2       1 <0>        -0.1071
     17 C13         4.4102   -0.5090    0.1161 C.2       1 <0>        -0.2352
     18 S1          2.6295   -0.4943    0.1055 S.3       1 <0>         0.2336
     19 C14         3.8772    3.1902    0.0943 C.2       1 <0>         0.5905
     20 O4          2.9354    3.9612    0.0863 O.2       1 <0>        -0.5643
     21 N2          5.1380    3.6665    0.0955 N.am      1 <0>        -0.8475
     22 N3         -6.3381    2.4490    0.2559 N.pl3     1 <0>        -0.7195
     23 C15        -7.6883    2.9694    0.4847 C.3       1 <0>         0.1136
     24 C16        -7.6387    4.4963    0.5700 C.3       1 <0>         0.0641
     25 O5         -7.2364    5.0311   -0.6926 O.3       1 <0>        -0.5691
     26 H1         -5.5686   -2.7228   -0.1732 H         1 <0>         0.1288
     27 H2         -7.8504   -1.8227    0.0100 H         1 <0>         0.1289
     28 H3         -8.2189    0.5966    0.2106 H         1 <0>         0.1306
     29 H4         -3.6352   -1.2099   -0.1661 H         1 <0>         0.1386
     30 H5         -1.4032    2.5681    0.9619 H         1 <0>         0.1132
     31 H6         -1.3845    2.5655   -0.8180 H         1 <0>         0.1140
     32 H7          1.1325    2.8630    0.0925 H         1 <0>         0.4361
     33 H8          5.7597    1.1248    0.1222 H         1 <0>         0.1413
     34 H9          5.0733   -1.3615    0.1213 H         1 <0>         0.1912
     35 H10         5.8886    3.0521    0.1019 H         1 <0>         0.4023
     36 H11         5.2948    4.6238    0.0899 H         1 <0>         0.4054
     37 H12        -5.5885    3.0604    0.1834 H         1 <0>         0.4212
     38 H13        -8.3367    2.6724   -0.3396 H         1 <0>         0.0727
     39 H14        -8.0798    2.5659    1.4185 H         1 <0>         0.0789
     40 H15        -8.6265    4.8780    0.8282 H         1 <0>         0.0648
     41 H16        -6.9225    4.7943    1.3357 H         1 <0>         0.0536
     42 H17        -7.1833    5.9964   -0.7119 H         1 <0>         0.3836
@<TRIPOS>BOND
     1    1    6 ar
     2    1    2 ar
     3    1   26 1
     4    2    3 ar
     5    2   27 1
     6    3    4 ar
     7    3   28 1
     8    4    5 ar
     9    4   22 1
    10    5    6 ar
    11    5    7 1
    12    6   29 1
    13    7    8 2
    14    7    9 1
    15    9   10 1
    16   10   11 1
    17   10   30 1
    18   10   31 1
    19   11   12 2
    20   11   13 am
    21   13   14 1
    22   13   32 1
    23   14   18 1
    24   14   15 2
    25   15   16 1
    26   15   19 1
    27   16   17 2
    28   16   33 1
    29   17   18 1
    30   17   34 1
    31   19   20 2
    32   19   21 am
    33   21   35 1
    34   21   36 1
    35   22   23 1
    36   22   37 1
    37   23   24 1
    38   23   38 1
    39   23   39 1
    40   24   25 1
    41   24   40 1
    42   24   41 1
    43   25   42 1
@<TRIPOS>MOLECULE
ZINC06623494
   44    45     0     0     0
SMALL
USER_CHARGES
5-(2,4,6-trimethylphenyl)sulfonylaminobenzene-1,3-dicarboxamide
@<TRIPOS>ATOM
      1 C1         -7.1359    0.0641    0.3792 C.3       1 <0>        -0.1252
      2 C2         -6.5086    1.3945    0.0513 C.ar      1 <0>        -0.0105
      3 C3         -6.5971    2.4407    0.9504 C.ar      1 <0>        -0.1513
      4 C4         -6.0209    3.6608    0.6500 C.ar      1 <0>         0.0268
      5 C5         -5.3566    3.8348   -0.5497 C.ar      1 <0>        -0.7001
      6 C6         -5.2731    2.7903   -1.4513 C.ar      1 <0>         0.0346
      7 C7         -5.8443    1.5685   -1.1485 C.ar      1 <0>        -0.1349
      8 C8         -4.5542    2.9819   -2.7619 C.3       1 <0>        -0.1585
      9 S1         -4.6226    5.3902   -0.9328 S.o2      1 <0>         2.6830
     10 O1         -5.5808    6.3848   -0.5984 O.2       1 <0>        -0.9426
     11 O2         -4.0735    5.2697   -2.2378 O.2       1 <0>        -0.9359
     12 N1         -3.3455    5.5968    0.1009 N.pl3     1 <0>        -1.0585
     13 C9         -2.2250    4.7675    0.0017 C.ar      1 <0>         0.1537
     14 C10        -0.9518    5.3183    0.0256 C.ar      1 <0>        -0.0436
     15 C11         0.1693    4.4927   -0.0728 C.ar      1 <0>        -0.1184
     16 C12         0.0088    3.1141   -0.1956 C.ar      1 <0>        -0.0663
     17 C13        -1.2712    2.5641   -0.2197 C.ar      1 <0>        -0.1134
     18 C14        -2.3883    3.3956   -0.1262 C.ar      1 <0>        -0.0836
     19 C15        -1.4459    1.1015   -0.3504 C.2       1 <0>         0.5627
     20 O3         -2.5628    0.6224   -0.3714 O.2       1 <0>        -0.5211
     21 N2         -0.3668    0.2998   -0.4462 N.am      1 <0>        -0.8484
     22 C16         1.5259    5.0805   -0.0473 C.2       1 <0>         0.5655
     23 O4          1.6652    6.2832    0.0598 O.2       1 <0>        -0.5283
     24 N3          2.6080    4.2827   -0.1428 N.am      1 <0>        -0.8479
     25 C17        -6.1174    4.8014    1.6302 C.3       1 <0>        -0.1397
     26 H1         -8.1640    0.0481    0.0173 H         1 <0>         0.0795
     27 H2         -6.5691   -0.7332   -0.1016 H         1 <0>         0.0744
     28 H3         -7.1284   -0.0849    1.4589 H         1 <0>         0.0724
     29 H4         -7.1161    2.3048    1.8877 H         1 <0>         0.1318
     30 H5         -5.7749    0.7510   -1.8508 H         1 <0>         0.1318
     31 H6         -3.4790    2.9012   -2.6017 H         1 <0>         0.0830
     32 H7         -4.8748    2.2156   -3.4676 H         1 <0>         0.0706
     33 H8         -4.7886    3.9674   -3.1642 H         1 <0>         0.1190
     34 H9         -3.3751    6.2934    0.7752 H         1 <0>         0.4305
     35 H10        -0.8281    6.3869    0.1207 H         1 <0>         0.1535
     36 H11         0.8747    2.4732   -0.2723 H         1 <0>         0.1349
     37 H12        -3.3808    2.9703   -0.1493 H         1 <0>         0.1573
     38 H13        -0.4815   -0.6596   -0.5319 H         1 <0>         0.4099
     39 H14         0.5244    0.6825   -0.4335 H         1 <0>         0.3997
     40 H15         2.4968    3.3228   -0.2283 H         1 <0>         0.4000
     41 H16         3.4979    4.6683   -0.1261 H         1 <0>         0.4104
     42 H17        -7.0173    5.3814    1.4254 H         1 <0>         0.0992
     43 H18        -6.1633    4.4057    2.6448 H         1 <0>         0.0846
     44 H19        -5.2414    5.4422    1.5295 H         1 <0>         0.0596
@<TRIPOS>BOND
     1    1    2 1
     2    1   26 1
     3    1   27 1
     4    1   28 1
     5    2    7 ar
     6    2    3 ar
     7    3    4 ar
     8    3   29 1
     9    4    5 ar
    10    4   25 1
    11    5    6 ar
    12    5    9 1
    13    6    7 ar
    14    6    8 1
    15    7   30 1
    16    8   31 1
    17    8   32 1
    18    8   33 1
    19    9   10 2
    20    9   11 2
    21    9   12 1
    22   12   13 1
    23   12   34 1
    24   13   18 ar
    25   13   14 ar
    26   14   15 ar
    27   14   35 1
    28   15   16 ar
    29   15   22 1
    30   16   17 ar
    31   16   36 1
    32   17   18 ar
    33   17   19 1
    34   18   37 1
    35   19   20 2
    36   19   21 am
    37   21   38 1
    38   21   39 1
    39   22   23 2
    40   22   24 am
    41   24   40 1
    42   24   41 1
    43   25   42 1
    44   25   43 1
    45   25   44 1
@<TRIPOS>MOLECULE
ZINC26460680
   44    45     0     0     0
SMALL
USER_CHARGES
4-[(2,4,5-trimethylphenyl)sulfonylamino]phthalamide
@<TRIPOS>ATOM
      1 C1          4.1048    5.4659   -1.1770 C.3       1 <0>        -0.1273
      2 C2          2.7927    4.9363   -0.6583 C.ar      1 <0>        -0.0210
      3 C3          2.7632    3.7714    0.0859 C.ar      1 <0>        -0.1396
      4 C4          1.5599    3.2856    0.5616 C.ar      1 <0>         0.0171
      5 C5          0.3858    3.9650    0.2940 C.ar      1 <0>        -0.6815
      6 C6          0.4148    5.1269   -0.4540 C.ar      1 <0>        -0.0118
      7 C7          1.6190    5.6152   -0.9262 C.ar      1 <0>        -0.1105
      8 C8          1.6513    6.8851   -1.7370 C.3       1 <0>        -0.1187
      9 S1         -1.1482    3.3457    0.9005 S.o2      1 <0>         2.6947
     10 O1         -2.1635    4.1883    0.3727 O.2       1 <0>        -0.9517
     11 O2         -0.9793    3.1385    2.2961 O.2       1 <0>        -0.9452
     12 N1         -1.3747    1.8512    0.2241 N.pl3     1 <0>        -1.0709
     13 C9         -1.4908    1.7227   -1.1560 C.ar      1 <0>         0.1629
     14 C10        -2.3312    2.5771   -1.8636 C.ar      1 <0>        -0.1308
     15 C11        -2.4577    2.4542   -3.2308 C.ar      1 <0>        -0.0731
     16 C12        -1.7426    1.4710   -3.9134 C.ar      1 <0>        -0.0823
     17 C13        -0.8909    0.6043   -3.2009 C.ar      1 <0>        -0.0769
     18 C14        -0.7709    0.7369   -1.8234 C.ar      1 <0>        -0.1021
     19 C15        -0.1274   -0.4420   -3.9164 C.2       1 <0>         0.5506
     20 O3         -0.2176   -0.5412   -5.1243 O.2       1 <0>        -0.5081
     21 N2          0.6681   -1.2850   -3.2286 N.am      1 <0>        -0.8738
     22 C16        -1.8771    1.3391   -5.3776 C.2       1 <0>         0.5666
     23 O4         -0.8947    1.4260   -6.0886 O.2       1 <0>        -0.5090
     24 N3         -3.0889    1.1224   -5.9262 N.am      1 <0>        -0.8743
     25 C17         1.5276    2.0157    1.3723 C.3       1 <0>        -0.1450
     26 H1          4.9196    4.7961   -0.8650 H         1 <0>         0.0711
     27 H2          4.2809    6.4722   -0.7693 H         1 <0>         0.0796
     28 H3          4.0715    5.5159   -2.2754 H         1 <0>         0.0798
     29 H4          3.6803    3.2409    0.2952 H         1 <0>         0.1330
     30 H5         -0.5028    5.6551   -0.6668 H         1 <0>         0.1433
     31 H6          0.6294    7.2777   -1.8442 H         1 <0>         0.0704
     32 H7          2.0694    6.6741   -2.7323 H         1 <0>         0.0744
     33 H8          2.2787    7.6304   -1.2262 H         1 <0>         0.0740
     34 H9         -1.4333    0.9600    0.8663 H         1 <0>         0.4569
     35 H10        -2.8873    3.3399   -1.3389 H         1 <0>         0.1659
     36 H11        -3.1119    3.1202   -3.7739 H         1 <0>         0.1437
     37 H12        -0.1199    0.0753   -1.2711 H         1 <0>         0.1381
     38 H13         1.2356   -2.0628   -3.7605 H         1 <0>         0.4289
     39 H14         0.7498   -1.1952   -2.1353 H         1 <0>         0.4137
     40 H15        -3.1891    1.0241   -7.0172 H         1 <0>         0.4256
     41 H16        -3.9777    1.0438   -5.2830 H         1 <0>         0.4168
     42 H17         0.4900    1.7904    1.6596 H         1 <0>         0.0656
     43 H18         2.1393    2.1430    2.2776 H         1 <0>         0.0935
     44 H19         1.9299    1.1868    0.7714 H         1 <0>         0.0873
@<TRIPOS>BOND
     1    1    2 1
     2    1   26 1
     3    1   27 1
     4    1   28 1
     5    2    7 ar
     6    2    3 ar
     7    3    4 ar
     8    3   29 1
     9    4    5 ar
    10    4   25 1
    11    5    6 ar
    12    5    9 1
    13    6    7 ar
    14    6   30 1
    15    7    8 1
    16    8   31 1
    17    8   32 1
    18    8   33 1
    19    9   10 2
    20    9   11 2
    21    9   12 1
    22   12   13 1
    23   12   34 1
    24   13   18 ar
    25   13   14 ar
    26   14   15 ar
    27   14   35 1
    28   15   16 ar
    29   15   36 1
    30   16   17 ar
    31   16   22 1
    32   17   18 ar
    33   17   19 1
    34   18   37 1
    35   19   20 2
    36   19   21 am
    37   21   38 1
    38   21   39 1
    39   22   23 2
    40   22   24 am
    41   24   40 1
    42   24   41 1
    43   25   42 1
    44   25   43 1
    45   25   44 1
@<TRIPOS>MOLECULE
ZINC40156192
   38    40     0     0     0
SMALL
USER_CHARGES

@<TRIPOS>ATOM
      1 C1          1.0706   -0.4542   -0.7674 C.ar      1 <0>        -0.0742
      2 C2          2.2559    0.2540   -0.7812 C.ar      1 <0>        -0.1249
      3 C3          2.3792    1.4152   -0.0322 C.ar      1 <0>         0.1211
      4 C4          1.3119    1.8660    0.7307 C.ar      1 <0>        -0.1911
      5 C5          0.1259    1.1588    0.7454 C.ar      1 <0>        -0.0973
      6 C6          0.0017   -0.0036   -0.0040 C.ar      1 <0>         0.1025
      7 N1         -1.2008   -0.7211    0.0101 N.am      1 <0>        -0.6576
      8 C7         -1.1854   -2.0643   -0.0990 C.2       1 <0>         0.5650
      9 O1         -0.1259   -2.6611   -0.1129 O.2       1 <0>        -0.5140
     10 C8         -2.4535   -2.8104   -0.2015 C.ar      1 <0>        -0.0869
     11 C9         -3.6734   -2.1289   -0.1918 C.ar      1 <0>        -0.0979
     12 C10        -4.8593   -2.8306   -0.2874 C.ar      1 <0>         0.1198
     13 C11        -4.8510   -4.2124   -0.3941 C.ar      1 <0>        -0.0996
     14 C12        -3.6497   -4.9029   -0.4057 C.ar      1 <0>         0.0988
     15 C13        -2.4431   -4.2060   -0.3150 C.ar      1 <0>         0.1275
     16 N2         -1.4280   -5.1494   -0.3587 N.pl3     1 <0>        -0.5574
     17 H1         -0.4774   -4.9620   -0.3119 H         1 <0>         0.4607
     18 C14        -1.9847   -6.3695   -0.4765 C.2       1 <0>         0.5066
     19 S1         -1.1194   -7.8439   -0.5684 S.2       1 <0>        -0.5543
     20 N3         -3.3262   -6.2545   -0.4985 N.pl3     1 <0>        -0.5722
     21 H2         -3.9582   -6.9862   -0.5771 H         1 <0>         0.4543
     22 F1         -6.0352   -2.1655   -0.2765 F         1 <0>        -0.1184
     23 O2          3.5470    2.1116   -0.0456 O.3       1 <0>        -0.2879
     24 C15         3.6039    3.2980    0.7488 C.3       1 <0>         0.0386
     25 C16         4.9646    3.9307    0.6100 C.2       1 <0>         0.5185
     26 O3          5.8030    3.4163   -0.0994 O.2       1 <0>        -0.5154
     27 N4          5.2498    5.0683    1.2742 N.am      1 <0>        -0.8502
     28 H3          0.9733   -1.3560   -1.3538 H         1 <0>         0.1431
     29 H4          3.0872   -0.0963   -1.3749 H         1 <0>         0.1400
     30 H5          1.4086    2.7701    1.3135 H         1 <0>         0.1343
     31 H6         -0.7047    1.5095    1.3400 H         1 <0>         0.1322
     32 H7         -2.0449   -0.2513    0.0984 H         1 <0>         0.4124
     33 H8         -3.6891   -1.0522   -0.1090 H         1 <0>         0.1575
     34 H9         -5.7833   -4.7525   -0.4681 H         1 <0>         0.1607
     35 H10         2.8410    3.9990    0.4102 H         1 <0>         0.0959
     36 H11         3.4261    3.0444    1.7939 H         1 <0>         0.0958
     37 H12         4.5792    5.4797    1.8416 H         1 <0>         0.4035
     38 H13         6.1256    5.4755    1.1848 H         1 <0>         0.4106
@<TRIPOS>BOND
     1    1    6 ar
     2    1    2 ar
     3    1   28 1
     4    2    3 ar
     5    2   29 1
     6    3    4 ar
     7    3   23 1
     8    4    5 ar
     9    4   30 1
    10    5    6 ar
    11    5   31 1
    12    6    7 1
    13    7    8 am
    14    7   32 1
    15    8    9 2
    16    8   10 1
    17   10   15 ar
    18   10   11 ar
    19   11   12 ar
    20   11   33 1
    21   12   13 ar
    22   12   22 1
    23   13   14 ar
    24   13   34 1
    25   14   20 1
    26   14   15 ar
    27   15   16 1
    28   16   17 1
    29   16   18 1
    30   18   19 2
    31   18   20 1
    32   20   21 1
    33   23   24 1
    34   24   25 1
    35   24   35 1
    36   24   36 1
    37   25   26 2
    38   25   27 am
    39   27   37 1
    40   27   38 1
@<TRIPOS>MOLECULE
ZINC59816124
   46    48     0     0     0
SMALL
USER_CHARGES

@<TRIPOS>ATOM
      1 C1         -0.0187    1.5258    0.0104 C.3       1 <0>        -0.1431
      2 C2          0.0021   -0.0041    0.0020 C.3       1 <0>        -0.1240
      3 H1          0.5123   -0.3556   -0.8948 H         1 <0>         0.1182
      4 C3         -1.4117   -0.5257    0.0127 C.2       1 <0>         0.5440
      5 O1         -1.9390   -0.8271    1.0625 O.2       1 <0>        -0.5149
      6 N1         -2.0902   -0.6573   -1.1443 N.am      1 <0>        -0.6953
      7 C4         -3.4646   -1.1643   -1.1339 C.3       1 <0>         0.0772
      8 C5         -3.8444   -2.1979   -2.1962 C.3       1 <0>        -0.1909
      9 C6         -4.3735   -0.7659   -2.2985 C.3       1 <0>        -0.1873
     10 S1          0.8794   -0.6050    1.4716 S.3       1 <0>         0.1053
     11 C7          2.5331   -0.0421    1.2407 C.2       1 <0>         0.2209
     12 N2          3.5513   -0.2567    2.0807 N.2       1 <0>        -0.5198
     13 C8          4.6443    0.3009    1.6033 C.2       1 <0>         0.5638
     14 N3          4.3327    0.8905    0.4294 N.pl3     1 <0>        -0.5070
     15 N4          2.9661    0.6505    0.2143 N.2       1 <0>        -0.3237
     16 N5          5.8917    0.2854    2.1994 N.pl3     1 <0>        -0.5508
     17 N6          6.0743   -0.3680    3.4251 N.2       1 <0>        -0.2162
     18 C9          7.2456   -0.3826    3.9848 C.2       1 <0>         0.1471
     19 C10         8.4089    0.3034    3.3160 C.3       1 <0>        -0.1574
     20 C11         7.4378   -1.0701    5.2745 C.ar      1 <0>        -0.1126
     21 C12         8.6967   -1.0820    5.8813 C.ar      1 <0>        -0.0405
     22 C13         8.8724   -1.7256    7.0866 C.ar      1 <0>        -0.2047
     23 C14         7.7992   -2.3634    7.6993 C.ar      1 <0>         0.2350
     24 C15         6.5451   -2.3541    7.0983 C.ar      1 <0>        -0.2038
     25 C16         6.3601   -1.7069    5.8963 C.ar      1 <0>        -0.0235
     26 N7          7.9811   -3.0147    8.9199 N.pl3     1 <0>        -0.8730
     27 H2          1.0039    1.9031    0.0027 H         1 <0>         0.0832
     28 H3         -0.5459    1.8868   -0.8726 H         1 <0>         0.0701
     29 H4         -0.5289    1.8773    0.9072 H         1 <0>         0.0753
     30 H5         -1.6686   -0.4162   -1.9840 H         1 <0>         0.4042
     31 H6         -3.9220   -1.2627   -0.1494 H         1 <0>         0.1412
     32 H7         -3.0716   -2.5006   -2.9028 H         1 <0>         0.0981
     33 H8         -4.5516   -2.9766   -1.9107 H         1 <0>         0.1050
     34 H9         -5.4288   -0.6025   -2.0802 H         1 <0>         0.1059
     35 H10        -3.9488   -0.1265   -3.0724 H         1 <0>         0.0982
     36 H11         6.6404    0.7270    1.7689 H         1 <0>         0.3980
     37 H12         8.4624    1.3388    3.6524 H         1 <0>         0.0878
     38 H13         9.3334   -0.2116    3.5770 H         1 <0>         0.0912
     39 H14         8.2723    0.2792    2.2349 H         1 <0>         0.0652
     40 H15         9.5308   -0.5875    5.4058 H         1 <0>         0.1281
     41 H16         9.8450   -1.7351    7.5562 H         1 <0>         0.1247
     42 H17         5.7141   -2.8511    7.5767 H         1 <0>         0.1254
     43 H18         5.3848   -1.6957    5.4327 H         1 <0>         0.1372
     44 H19         8.8554   -3.0221    9.3400 H         1 <0>         0.3998
     45 H20         7.2334   -3.4599    9.3483 H         1 <0>         0.4008
     46 H21         4.9350    1.3800   -0.1525 H         1 <0>         0.4376
@<TRIPOS>BOND
     1    1    2 1
     2    1   27 1
     3    1   28 1
     4    1   29 1
     5    2    3 1
     6    2    4 1
     7    2   10 1
     8    4    5 2
     9    4    6 am
    10    6    7 1
    11    6   30 1
    12    7    9 1
    13    7    8 1
    14    7   31 1
    15    8    9 1
    16    8   32 1
    17    8   33 1
    18    9   34 1
    19    9   35 1
    20   10   11 1
    21   11   15 2
    22   11   12 1
    23   12   13 2
    24   13   14 1
    25   13   16 1
    26   14   15 1
    27   14   46 1
    28   16   17 1
    29   16   36 1
    30   17   18 2
    31   18   19 1
    32   18   20 1
    33   19   37 1
    34   19   38 1
    35   19   39 1
    36   20   25 ar
    37   20   21 ar
    38   21   22 ar
    39   21   40 1
    40   22   23 ar
    41   22   41 1
    42   23   24 ar
    43   23   26 1
    44   24   25 ar
    45   24   42 1
    46   25   43 1
    47   26   44 1
    48   26   45 1
@<TRIPOS>MOLECULE
ZINC05285905
   47    49     0     0     0
SMALL
USER_CHARGES
3-[2,3,4-trihydroxy-1-(p-tolylaminoimino)butyl]-1H-quinoxalin-2-one
@<TRIPOS>ATOM
      1 C1          9.3770   -1.2832   -1.9307 C.3       1 <0>        -0.1099
      2 C2          7.9321   -0.8664   -2.0279 C.ar      1 <0>        -0.1265
      3 C3          7.2378   -1.0549   -3.2092 C.ar      1 <0>        -0.0792
      4 C4          5.9138   -0.6743   -3.3021 C.ar      1 <0>        -0.1748
      5 C5          5.2787   -0.1012   -2.2065 C.ar      1 <0>         0.2032
      6 C6          5.9812    0.0915   -1.0227 C.ar      1 <0>        -0.1506
      7 C7          7.3034   -0.2969   -0.9355 C.ar      1 <0>        -0.0827
      8 N1          3.9413    0.2850   -2.2967 N.pl3     1 <0>        -0.5698
      9 N2          3.3029    0.8626   -1.1913 N.2       1 <0>        -0.1789
     10 C8          2.0304    1.1349   -1.2432 C.2       1 <0>         0.1097
     11 C9          1.2915    0.9504   -2.4967 C.2       1 <0>         0.1096
     12 C10         1.4787    1.9006   -3.6115 C.2       1 <0>         0.5041
     13 O1          2.2435    2.8404   -3.4992 O.2       1 <0>        -0.4759
     14 N3          0.7888    1.7121   -4.7575 N.am      1 <0>        -0.6266
     15 H1          0.8999    2.3430   -5.5254 H         1 <0>         0.4281
     16 C11        -0.0733    0.6349   -4.8547 C.ar      1 <0>         0.1611
     17 C12        -0.7946    0.4198   -6.0243 C.ar      1 <0>        -0.1641
     18 C13        -1.6518   -0.6560   -6.1146 C.ar      1 <0>        -0.0482
     19 C14        -1.8018   -1.5295   -5.0457 C.ar      1 <0>        -0.1460
     20 C15        -1.1044   -1.3389   -3.8887 C.ar      1 <0>        -0.0264
     21 C16        -0.2253   -0.2502   -3.7705 C.ar      1 <0>         0.0144
     22 N4          0.4651   -0.0653   -2.6306 N.2       1 <0>        -0.3689
     23 C17         1.3172    1.6397   -0.0154 C.3       1 <0>         0.1501
     24 H2          1.8494    1.3078    0.8761 H         1 <0>         0.0967
     25 C18         1.2732    3.1688   -0.0436 C.3       1 <0>         0.1255
     26 H3          2.2869    3.5628    0.0293 H         1 <0>         0.1210
     27 C19         0.4424    3.6769    1.1365 C.3       1 <0>         0.0496
     28 O2          0.4973    5.1043    1.1780 O.3       1 <0>        -0.5648
     29 O3          0.6792    3.6058   -1.2676 O.3       1 <0>        -0.5338
     30 O4         -0.0158    1.1251    0.0065 O.3       1 <0>        -0.5482
     31 H4         10.0159   -0.4511   -2.2267 H         1 <0>         0.0672
     32 H5          9.6046   -1.5684   -0.9035 H         1 <0>         0.0645
     33 H6          9.5558   -2.1315   -2.5914 H         1 <0>         0.0635
     34 H7          7.7320   -1.5000   -4.0601 H         1 <0>         0.1251
     35 H8          5.3722   -0.8222   -4.2247 H         1 <0>         0.1185
     36 H9          5.4923    0.5403   -0.1707 H         1 <0>         0.1332
     37 H10         7.8485   -0.1519   -0.0146 H         1 <0>         0.1254
     38 H11         3.4533    0.1537   -3.1246 H         1 <0>         0.3858
     39 H12        -0.6830    1.0942   -6.8604 H         1 <0>         0.1387
     40 H13        -2.2108   -0.8210   -7.0238 H         1 <0>         0.1394
     41 H14        -2.4768   -2.3682   -5.1312 H         1 <0>         0.1393
     42 H15        -1.2284   -2.0250   -3.0639 H         1 <0>         0.1450
     43 H16        -0.5925    3.3564    1.0169 H         1 <0>         0.0597
     44 H17         0.8436    3.2707    2.0650 H         1 <0>         0.0556
     45 H18        -0.0084    5.4963    1.9031 H         1 <0>         0.3806
     46 H19        -0.2258    3.2918   -1.3996 H         1 <0>         0.3694
     47 H20        -0.0644    0.1595    0.0250 H         1 <0>         0.3915
@<TRIPOS>BOND
     1    1    2 1
     2    1   31 1
     3    1   32 1
     4    1   33 1
     5    2    7 ar
     6    2    3 ar
     7    3    4 ar
     8    3   34 1
     9    4    5 ar
    10    4   35 1
    11    5    6 ar
    12    5    8 1
    13    6    7 ar
    14    6   36 1
    15    7   37 1
    16    8    9 1
    17    8   38 1
    18    9   10 2
    19   10   11 1
    20   10   23 1
    21   11   22 2
    22   11   12 1
    23   12   13 2
    24   12   14 am
    25   14   15 1
    26   14   16 1
    27   16   21 ar
    28   16   17 ar
    29   17   18 ar
    30   17   39 1
    31   18   19 ar
    32   18   40 1
    33   19   20 ar
    34   19   41 1
    35   20   21 ar
    36   20   42 1
    37   21   22 1
    38   23   24 1
    39   23   25 1
    40   23   30 1
    41   25   26 1
    42   25   27 1
    43   25   29 1
    44   27   28 1
    45   27   43 1
    46   27   44 1
    47   28   45 1
    48   29   46 1
    49   30   47 1
@<TRIPOS>MOLECULE
ZINC27202368
   51    51     0     0     0
SMALL
USER_CHARGES
[(1S)-1-[[[(2S)-2-(4-chloro-2,6-dimethyl-phenoxy)propanoyl]amino]carbamoyl]-2-methyl-propyl]urea
@<TRIPOS>ATOM
      1 C1         -5.6769   11.7347   -0.8744 C.3       1 <0>        -0.1250
      2 C2         -6.3347   11.3568   -2.1766 C.ar      1 <0>        -0.0745
      3 C3         -6.5791   12.3229   -3.1333 C.ar      1 <0>        -0.1070
      4 C4         -7.1877   11.9773   -4.3269 C.ar      1 <0>        -0.0267
      5 C5         -7.5479   10.6631   -4.5669 C.ar      1 <0>        -0.1074
      6 C6         -7.3004    9.6933   -3.6147 C.ar      1 <0>        -0.0816
      7 C7         -6.6903   10.0378   -2.4174 C.ar      1 <0>         0.0883
      8 O1         -6.4463    9.0851   -1.4792 O.3       1 <0>        -0.2976
      9 C8         -5.2520    8.3153   -1.6315 C.3       1 <0>         0.0873
     10 H1         -4.9859    8.3683   -2.6975 H         1 <0>         0.0965
     11 C9         -4.1516    8.9003   -0.7439 C.3       1 <0>        -0.1803
     12 C10        -5.5188    6.8886   -1.2262 C.2       1 <0>         0.5148
     13 O2         -6.5954    6.5820   -0.7594 O.2       1 <0>        -0.5161
     14 N1         -4.5611    5.9533   -1.3827 N.am      1 <0>        -0.5313
     15 N2         -4.8092    4.6269   -1.0059 N.am      1 <0>        -0.5256
     16 C11        -3.8515    3.6916   -1.1624 C.2       1 <0>         0.5202
     17 O3         -2.7480    4.0125   -1.5501 O.2       1 <0>        -0.5419
     18 C12        -4.1517    2.2470   -0.8554 C.3       1 <0>         0.1682
     19 H2         -5.1940    2.0181   -1.1224 H         1 <0>         0.1117
     20 C13        -3.8925    1.9762    0.6279 C.3       1 <0>        -0.0976
     21 C14        -4.8578    2.8083    1.4745 C.3       1 <0>        -0.1614
     22 C15        -4.1086    0.4901    0.9204 C.3       1 <0>        -0.1362
     23 N3         -3.2884    1.3857   -1.6672 N.am      1 <0>        -0.7467
     24 C16        -3.6757    0.1288   -1.9617 C.2       1 <0>         0.7128
     25 O4         -4.7417   -0.2902   -1.5537 O.2       1 <0>        -0.5967
     26 N4         -2.8815   -0.6636   -2.7085 N.am      1 <0>        -0.8906
     27 C17        -7.6924    8.2620   -3.8767 C.3       1 <0>        -0.1240
     28 Cl1        -7.4993   13.1942   -5.5253 Cl        1 <0>        -0.0628
     29 H3         -5.4714   12.8153   -0.8675 H         1 <0>         0.0705
     30 H4         -4.7325   11.1811   -0.7665 H         1 <0>         0.0819
     31 H5         -6.3467   11.4835   -0.0388 H         1 <0>         0.0806
     32 H6         -6.2986   13.3492   -2.9479 H         1 <0>         0.1399
     33 H7         -8.0232   10.3954   -5.4990 H         1 <0>         0.1388
     34 H8         -3.2323    8.3078   -0.8611 H         1 <0>         0.0790
     35 H9         -4.4746    8.8720    0.3072 H         1 <0>         0.0802
     36 H10        -3.9568    9.9417   -1.0397 H         1 <0>         0.0868
     37 H11        -3.5847    6.2313   -1.8062 H         1 <0>         0.4575
     38 H12        -5.7856    4.3489   -0.5824 H         1 <0>         0.4616
     39 H13        -2.8567    2.2517    0.8754 H         1 <0>         0.0783
     40 H14        -4.6714    2.6136    2.5410 H         1 <0>         0.0692
     41 H15        -5.8936    2.5327    1.2270 H         1 <0>         0.0650
     42 H16        -4.7024    3.8768    1.2642 H         1 <0>         0.0570
     43 H17        -3.9222    0.2954    1.9869 H         1 <0>         0.0512
     44 H18        -3.4146   -0.1081    0.3117 H         1 <0>         0.0547
     45 H19        -5.1444    0.2145    0.6729 H         1 <0>         0.0703
     46 H20        -2.3241    1.7648   -2.0364 H         1 <0>         0.4255
     47 H21        -3.1976   -1.6894   -2.9488 H         1 <0>         0.4390
     48 H22        -1.9171   -0.2845   -3.0777 H         1 <0>         0.4146
     49 H23        -7.4173    7.6421   -3.0107 H         1 <0>         0.0769
     50 H24        -7.1673    7.8959   -4.7713 H         1 <0>         0.0726
     51 H25        -8.7787    8.2033   -4.0394 H         1 <0>         0.0799
@<TRIPOS>BOND
     1    1    2 1
     2    1   29 1
     3    1   30 1
     4    1   31 1
     5    2    7 ar
     6    2    3 ar
     7    3    4 ar
     8    3   32 1
     9    4    5 ar
    10    4   28 1
    11    5    6 ar
    12    5   33 1
    13    6    7 ar
    14    6   27 1
    15    7    8 1
    16    8    9 1
    17    9   10 1
    18    9   11 1
    19    9   12 1
    20   11   34 1
    21   11   35 1
    22   11   36 1
    23   12   13 2
    24   12   14 am
    25   14   15 1
    26   14   37 1
    27   15   16 am
    28   15   38 1
    29   16   17 2
    30   16   18 1
    31   18   19 1
    32   18   20 1
    33   18   23 1
    34   20   21 1
    35   20   22 1
    36   20   39 1
    37   21   40 1
    38   21   41 1
    39   21   42 1
    40   22   43 1
    41   22   44 1
    42   22   45 1
    43   23   24 am
    44   23   46 1
    45   24   25 2
    46   24   26 am
    47   26   47 1
    48   26   48 1
    49   27   49 1
    50   27   50 1
    51   27   51 1
@<TRIPOS>MOLECULE
ZINC40783671
   52    55     0     0     0
SMALL
USER_CHARGES

@<TRIPOS>ATOM
      1 C1         -0.0167    1.3781    0.0096 C.ar      1 <0>        -0.1193
      2 C2          1.1709    2.0855    0.0021 C.ar      1 <0>        -0.1186
      3 C3          2.3773    1.4107   -0.0130 C.ar      1 <0>        -0.0989
      4 C4          2.3960    0.0285   -0.0201 C.ar      1 <0>        -0.0854
      5 C5          1.2084   -0.6789   -0.0117 C.ar      1 <0>        -0.1021
      6 C6          0.0021   -0.0041    0.0020 C.ar      1 <0>        -0.1221
      7 C7          3.7112   -0.7071   -0.0376 C.3       1 <0>         0.2447
      8 C8          4.0438   -1.1746    1.3559 C.ar      1 <0>        -0.0888
      9 C9          3.4555   -2.3197    1.8597 C.ar      1 <0>        -0.1133
     10 C10         3.7605   -2.7485    3.1379 C.ar      1 <0>        -0.1150
     11 C11         4.6543   -2.0326    3.9122 C.ar      1 <0>        -0.1167
     12 C12         5.2433   -0.8881    3.4082 C.ar      1 <0>        -0.1139
     13 C13         4.9415   -0.4616    2.1284 C.ar      1 <0>        -0.1033
     14 N1          3.6115   -1.8645   -0.9302 N.pl3     1 <0>        -0.7070
     15 C14         3.8312   -1.7112   -2.2939 C.ar      1 <0>         0.4172
     16 C15         3.7333   -2.8057   -3.1551 C.ar      1 <0>         0.0047
     17 C16         3.9632   -2.5964   -4.5157 C.ar      1 <0>         0.3999
     18 N2          4.2649   -1.3705   -4.9375 N.ar      1 <0>        -0.5814
     19 C17         4.3473   -0.3643   -4.0910 C.ar      1 <0>         0.3336
     20 N3          4.1328   -0.5179   -2.7998 N.ar      1 <0>        -0.5631
     21 N4          3.8790   -3.6517   -5.4162 N.pl3     1 <0>        -0.5134
     22 N5          4.1119   -3.4294   -6.7797 N.am      1 <0>        -0.5022
     23 C18         4.0302   -4.4528   -7.6529 C.2       1 <0>         0.5633
     24 O1          3.7545   -5.5686   -7.2575 O.2       1 <0>        -0.5389
     25 C19         4.2760   -4.2182   -9.0917 C.ar      1 <0>        -0.1824
     26 C20         4.1886   -5.2717  -10.0099 C.ar      1 <0>        -0.0114
     27 C21         4.4278   -4.9993  -11.3452 C.ar      1 <0>        -0.1770
     28 C22         4.7426   -3.7073  -11.7268 C.ar      1 <0>         0.1277
     29 N6          4.8184   -2.7343  -10.8392 N.ar      1 <0>        -0.4835
     30 C23         4.5933   -2.9422   -9.5584 C.ar      1 <0>         0.1382
     31 N7          3.4127   -4.0826   -2.6656 N.pl3     1 <0>        -0.8765
     32 H1         -0.9591    1.9053    0.0259 H         1 <0>         0.1201
     33 H2          1.1563    3.1654    0.0076 H         1 <0>         0.1224
     34 H3          3.3051    1.9634   -0.0196 H         1 <0>         0.1227
     35 H4          1.2231   -1.7588   -0.0179 H         1 <0>         0.1120
     36 H5         -0.9258   -0.5567    0.0082 H         1 <0>         0.1189
     37 H6          4.4960   -0.0399   -0.3940 H         1 <0>         0.1088
     38 H7          2.7572   -2.8790    1.2547 H         1 <0>         0.1159
     39 H8          3.3004   -3.6427    3.5317 H         1 <0>         0.1238
     40 H9          4.8921   -2.3673    4.9112 H         1 <0>         0.1236
     41 H10         5.9413   -0.3286    4.0133 H         1 <0>         0.1256
     42 H11         5.4045    0.4305    1.7332 H         1 <0>         0.1257
     43 H12         3.3922   -2.7378   -0.5694 H         1 <0>         0.4029
     44 H13         4.5942    0.6175   -4.4673 H         1 <0>         0.1975
     45 H14         3.6590   -4.5422   -5.1006 H         1 <0>         0.4376
     46 H15         4.3319   -2.5389   -7.0953 H         1 <0>         0.4332
     47 H16         3.9412   -6.2713   -9.6842 H         1 <0>         0.1501
     48 H17         4.3697   -5.7871  -12.0817 H         1 <0>         0.1473
     49 H18         4.9299   -3.4919  -12.7684 H         1 <0>         0.1655
     50 H19         4.6599   -2.1189   -8.8626 H         1 <0>         0.1602
     51 H20         3.2558   -4.2132   -1.7173 H         1 <0>         0.3951
     52 H21         3.3481   -4.8339   -3.2758 H         1 <0>         0.3956
@<TRIPOS>BOND
     1    1    6 ar
     2    1    2 ar
     3    1   32 1
     4    2    3 ar
     5    2   33 1
     6    3    4 ar
     7    3   34 1
     8    4    5 ar
     9    4    7 1
    10    5    6 ar
    11    5   35 1
    12    6   36 1
    13    7    8 1
    14    7   14 1
    15    7   37 1
    16    8   13 ar
    17    8    9 ar
    18    9   10 ar
    19    9   38 1
    20   10   11 ar
    21   10   39 1
    22   11   12 ar
    23   11   40 1
    24   12   13 ar
    25   12   41 1
    26   13   42 1
    27   14   15 1
    28   14   43 1
    29   15   20 ar
    30   15   16 ar
    31   16   17 ar
    32   16   31 1
    33   17   18 ar
    34   17   21 1
    35   18   19 ar
    36   19   20 ar
    37   19   44 1
    38   21   22 1
    39   21   45 1
    40   22   23 am
    41   22   46 1
    42   23   24 2
    43   23   25 1
    44   25   30 ar
    45   25   26 ar
    46   26   27 ar
    47   26   47 1
    48   27   28 ar
    49   27   48 1
    50   28   29 ar
    51   28   49 1
    52   29   30 ar
    53   30   50 1
    54   31   51 1
    55   31   52 1
@<TRIPOS>MOLECULE
ZINC58078238
   51    52     0     0     0
SMALL
USER_CHARGES

@<TRIPOS>ATOM
      1 C1         -0.7284    1.4402   -2.2463 C.3       1 <0>        -0.1550
      2 C2         -0.2596   -0.0003   -2.4611 C.3       1 <0>        -0.1075
      3 C3          0.0555   -0.6412   -1.1081 C.3       1 <0>        -0.0989
      4 C4         -1.2293   -0.7522   -0.2847 C.3       1 <0>        -0.1500
      5 C5          0.6418   -2.0371   -1.3291 C.3       1 <0>         0.1652
      6 C6          1.0815   -2.6123   -0.0074 C.2       1 <0>         0.5166
      7 O1          0.3492   -3.3639    0.6005 O.2       1 <0>        -0.5294
      8 N1          2.2886   -2.2913    0.4990 N.am      1 <0>        -0.5121
      9 N2          2.6593   -2.7494    1.7700 N.am      1 <0>        -0.5194
     10 C7          3.8664   -2.4285    2.2764 C.2       1 <0>         0.6134
     11 O2          4.6344   -1.7408    1.6295 O.2       1 <0>        -0.5224
     12 C8          4.2542   -2.9078    3.6062 C.2       1 <0>        -0.2661
     13 C9          5.4286   -2.6906    4.3032 C.2       1 <0>        -0.0447
     14 C10         5.5283   -3.2718    5.5585 C.2       1 <0>        -0.1478
     15 C11         4.4567   -4.0017    5.9825 C.2       1 <0>        -0.1852
     16 S1          3.3318   -3.9166    4.7512 S.3       1 <0>         0.2148
     17 C12         4.3238   -4.7238    7.2909 C.3       1 <0>        -0.0456
     18 C13         5.7159   -4.8351    7.9276 C.3       1 <0>        -0.1103
     19 C14         6.3903   -3.4612    7.8810 C.3       1 <0>        -0.0931
     20 C15         6.7650   -3.1158    6.4395 C.3       1 <0>        -0.0523
     21 C16         7.6542   -3.4856    8.7429 C.3       1 <0>        -0.1490
     22 N3         -0.3764   -2.9056   -1.9251 N.am      1 <0>        -0.7272
     23 C17        -0.5589   -2.9119   -3.2604 C.2       1 <0>         0.7103
     24 O3          0.1214   -2.1968   -3.9704 O.2       1 <0>        -0.5846
     25 N4         -1.4956   -3.7109   -3.8088 N.am      1 <0>        -0.8646
     26 H1         -1.6246    1.4419   -1.6259 H         1 <0>         0.0533
     27 H2          0.0584    2.0081   -1.7497 H         1 <0>         0.0528
     28 H3         -0.9529    1.8968   -3.2103 H         1 <0>         0.0549
     29 H4         -1.0464   -0.5682   -2.9578 H         1 <0>         0.0665
     30 H5          0.6366   -0.0020   -3.0815 H         1 <0>         0.0736
     31 H6          0.7777   -0.0244   -0.5732 H         1 <0>         0.0848
     32 H7         -1.0233   -1.2929    0.6390 H         1 <0>         0.0568
     33 H8         -1.5960    0.2464   -0.0472 H         1 <0>         0.0625
     34 H9         -1.9839   -1.2892   -0.8595 H         1 <0>         0.0589
     35 H10         1.4989   -1.9692   -1.9991 H         1 <0>         0.1174
     36 H11         2.9007   -1.7433   -0.0166 H         1 <0>         0.4371
     37 H12         2.0472   -3.2975    2.2856 H         1 <0>         0.4318
     38 H13         6.2304   -2.0969    3.8895 H         1 <0>         0.1492
     39 H14         3.6621   -4.1646    7.9524 H         1 <0>         0.0890
     40 H15         3.9185   -5.7210    7.1196 H         1 <0>         0.0864
     41 H16         5.6189   -5.1597    8.9637 H         1 <0>         0.0762
     42 H17         6.3156   -5.5556    7.3714 H         1 <0>         0.0696
     43 H18         5.7042   -2.7075    8.2675 H         1 <0>         0.0735
     44 H19         7.5475   -3.7912    6.0935 H         1 <0>         0.0777
     45 H20         7.1205   -2.0865    6.3910 H         1 <0>         0.0770
     46 H21         8.3405   -4.2410    8.3601 H         1 <0>         0.0566
     47 H22         8.1352   -2.5080    8.7105 H         1 <0>         0.0572
     48 H23         7.3875   -3.7253    9.7722 H         1 <0>         0.0579
     49 H24        -0.9191   -3.4761   -1.3587 H         1 <0>         0.4075
     50 H25        -2.0384   -4.2814   -3.2424 H         1 <0>         0.3984
     51 H26        -1.6270   -3.7155   -4.7698 H         1 <0>         0.4179
@<TRIPOS>BOND
     1    1    2 1
     2    1   26 1
     3    1   27 1
     4    1   28 1
     5    2    3 1
     6    2   29 1
     7    2   30 1
     8    3    4 1
     9    3    5 1
    10    3   31 1
    11    4   32 1
    12    4   33 1
    13    4   34 1
    14    5    6 1
    15    5   22 1
    16    5   35 1
    17    6    7 2
    18    6    8 am
    19    8    9 1
    20    8   36 1
    21    9   10 am
    22    9   37 1
    23   10   11 2
    24   10   12 1
    25   12   16 1
    26   12   13 2
    27   13   14 1
    28   13   38 1
    29   14   20 1
    30   14   15 2
    31   15   16 1
    32   15   17 1
    33   17   18 1
    34   17   39 1
    35   17   40 1
    36   18   19 1
    37   18   41 1
    38   18   42 1
    39   19   20 1
    40   19   21 1
    41   19   43 1
    42   20   44 1
    43   20   45 1
    44   21   46 1
    45   21   47 1
    46   21   48 1
    47   22   23 am
    48   22   49 1
    49   23   24 2
    50   23   25 am
    51   25   50 1
    52   25   51 1
@<TRIPOS>MOLECULE
ZINC66142660
   55    56     0     0     0
SMALL
USER_CHARGES

@<TRIPOS>ATOM
      1 C1         -0.2524    1.4933   -0.0998 C.3       1 <0>        -0.1750
      2 C2          0.0015   -0.0118    0.0047 C.3       1 <0>         0.0686
      3 H1         -0.9496   -0.5345    0.1059 H         1 <0>         0.0981
      4 C3          0.8605   -0.2939    1.2103 C.2       1 <0>         0.5231
      5 O1          1.9766   -0.7464    1.0672 O.2       1 <0>        -0.5137
      6 N1          0.3885   -0.0432    2.4476 N.am      1 <0>        -0.7098
      7 C4          1.2236   -0.3173    3.6196 C.3       1 <0>         0.1216
      8 H2          2.2664   -0.1102    3.3792 H         1 <0>         0.1099
      9 C5          1.0745   -1.7866    4.0196 C.3       1 <0>         0.0676
     10 O2         -0.2674   -2.0303    4.4462 O.3       1 <0>        -0.5535
     11 C6          0.7811    0.5749    4.7811 C.3       1 <0>         0.1544
     12 H3          1.4575    0.4356    5.6245 H         1 <0>         0.1164
     13 C7          0.8110    2.0174    4.3461 C.ar      1 <0>        -0.1769
     14 C8         -0.2781    2.5635    3.6920 C.ar      1 <0>        -0.0620
     15 C9         -0.2540    3.8851    3.2920 C.ar      1 <0>        -0.1942
     16 C10         0.8660    4.6661    3.5475 C.ar      1 <0>         0.2199
     17 C11         1.9584    4.1144    4.2048 C.ar      1 <0>        -0.1936
     18 C12         1.9254    2.7936    4.6071 C.ar      1 <0>        -0.0572
     19 N2          0.8940    6.0030    3.1439 N.pl3     1 <0>        -0.8775
     20 O3         -0.5474    0.2230    5.1728 O.3       1 <0>        -0.5255
     21 O4          0.6709   -0.4649   -1.1737 O.3       1 <0>        -0.2851
     22 C13        -0.1065   -0.7748   -2.2444 C.ar      1 <0>         0.1245
     23 C14         0.4644   -1.3311   -3.3799 C.ar      1 <0>        -0.1446
     24 C15        -0.3281   -1.6456   -4.4668 C.ar      1 <0>        -0.0768
     25 C16        -1.6891   -1.4060   -4.4239 C.ar      1 <0>        -0.1123
     26 C17        -2.2605   -0.8512   -3.2936 C.ar      1 <0>        -0.0739
     27 C18        -1.4732   -0.5406   -2.2017 C.ar      1 <0>        -0.2089
     28 C19        -2.5512   -1.7496   -5.6112 C.3       1 <0>        -0.0539
     29 C20        -3.6113   -2.7706   -5.1933 C.3       1 <0>        -0.1452
     30 C21        -3.2380   -0.4831   -6.1264 C.3       1 <0>        -0.1450
     31 H4          0.6987    2.0161   -0.2011 H         1 <0>         0.0756
     32 H5         -0.8737    1.6973   -0.9718 H         1 <0>         0.0772
     33 H6         -0.7630    1.8390    0.7990 H         1 <0>         0.0777
     34 H7         -0.5041    0.3188    2.5621 H         1 <0>         0.3968
     35 H8          1.3047   -2.4213    3.1639 H         1 <0>         0.0501
     36 H9          1.7617   -2.0127    4.8350 H         1 <0>         0.0560
     37 H10        -0.4347   -2.9439    4.7153 H         1 <0>         0.3757
     38 H11        -1.1484    1.9556    3.4934 H         1 <0>         0.1131
     39 H12        -1.1048    4.3108    2.7808 H         1 <0>         0.1208
     40 H13         2.8308    4.7188    4.4047 H         1 <0>         0.1213
     41 H14         2.7725    2.3653    5.1221 H         1 <0>         0.1230
     42 H15         0.1307    6.3870    2.6847 H         1 <0>         0.3988
     43 H16         1.6766    6.5473    3.3229 H         1 <0>         0.3992
     44 H17        -1.2041    0.3228    4.4701 H         1 <0>         0.3655
     45 H18         1.5276   -1.5178   -3.4141 H         1 <0>         0.1318
     46 H19         0.1159   -2.0787   -5.3509 H         1 <0>         0.1293
     47 H20        -3.3238   -0.6646   -3.2627 H         1 <0>         0.1242
     48 H21        -1.9207   -0.1113   -1.3174 H         1 <0>         0.1280
     49 H22        -1.9303   -2.1729   -6.4007 H         1 <0>         0.0773
     50 H23        -4.2323   -2.3472   -4.4038 H         1 <0>         0.0556
     51 H24        -4.2349   -3.0191   -6.0521 H         1 <0>         0.0581
     52 H25        -3.1221   -3.6728   -4.8263 H         1 <0>         0.0560
     53 H26        -3.8616   -0.7317   -6.9852 H         1 <0>         0.0581
     54 H27        -3.8589   -0.0598   -5.3369 H         1 <0>         0.0555
     55 H28        -2.4828    0.2443   -6.4241 H         1 <0>         0.0559
@<TRIPOS>BOND
     1    1    2 1
     2    1   31 1
     3    1   32 1
     4    1   33 1
     5    2    3 1
     6    2    4 1
     7    2   21 1
     8    4    5 2
     9    4    6 am
    10    6    7 1
    11    6   34 1
    12    7    8 1
    13    7    9 1
    14    7   11 1
    15    9   10 1
    16    9   35 1
    17    9   36 1
    18   10   37 1
    19   11   12 1
    20   11   13 1
    21   11   20 1
    22   13   18 ar
    23   13   14 ar
    24   14   15 ar
    25   14   38 1
    26   15   16 ar
    27   15   39 1
    28   16   17 ar
    29   16   19 1
    30   17   18 ar
    31   17   40 1
    32   18   41 1
    33   19   42 1
    34   19   43 1
    35   20   44 1
    36   21   22 1
    37   22   27 ar
    38   22   23 ar
    39   23   24 ar
    40   23   45 1
    41   24   25 ar
    42   24   46 1
    43   25   26 ar
    44   25   28 1
    45   26   27 ar
    46   26   47 1
    47   27   48 1
    48   28   29 1
    49   28   30 1
    50   28   49 1
    51   29   50 1
    52   29   51 1
    53   29   52 1
    54   30   53 1
    55   30   54 1
    56   30   55 1
@<TRIPOS>MOLECULE
ZINC09130401
   58    61     0     0     0
SMALL
USER_CHARGES
2-carbamoylethyl-chloro-N-(5-chloro-2-methoxy-phenyl)-methyl-oxo-BLAHcarboxamide
@<TRIPOS>ATOM
      1 C1          0.3780    1.0255    0.2438 C.3       1 <0>        -0.1209
      2 C2         -0.3825    1.5060    1.4529 C.ar      1 <0>        -0.0667
      3 C3          0.2764    1.7010    2.6542 C.ar      1 <0>        -0.0341
      4 C4         -0.4195    2.1401    3.7582 C.ar      1 <0>        -0.1986
      5 C5         -1.7856    2.3906    3.6828 C.ar      1 <0>         0.1662
      6 C6         -2.4417    2.1932    2.4691 C.ar      1 <0>        -0.0411
      7 C7         -1.7388    1.7585    1.3630 C.ar      1 <0>        -0.0413
      8 Cl1        -4.1459    2.5003    2.3461 Cl        1 <0>        -0.0316
      9 N1         -2.2668    2.8204    4.9216 N.am      1 <0>        -0.6360
     10 C8         -1.2948    2.8804    5.8509 C.2       1 <0>         0.5291
     11 O1         -1.4219    3.2161    7.0095 O.2       1 <0>        -0.4354
     12 C9         -0.0187    2.4495    5.1753 C.3       1 <0>         0.0920
     13 C10         0.5770    1.2150    5.8620 C.3       1 <0>        -0.1112
     14 H1         -0.0115    0.9483    6.7399 H         1 <0>         0.1444
     15 C11         2.0042    1.6438    6.2803 C.3       1 <0>        -0.1204
     16 C12         2.3027    2.8309    5.3294 C.3       1 <0>         0.0297
     17 H2          2.6312    2.4721    4.3540 H         1 <0>         0.1575
     18 C13         3.3516    3.7617    5.9413 C.3       1 <0>        -0.1223
     19 C14         3.6320    4.9170    4.9782 C.3       1 <0>        -0.1604
     20 C15         4.6652    5.8338    5.5809 C.2       1 <0>         0.5153
     21 O2          5.1313    5.5874    6.6731 O.2       1 <0>        -0.5326
     22 N2          5.0712    6.9275    4.9061 N.am      1 <0>        -0.8511
     23 C16         0.6382    0.0575    4.8989 C.2       1 <0>         0.5261
     24 O3          1.6664   -0.1801    4.3009 O.2       1 <0>        -0.4981
     25 N3         -0.4495   -0.7136    4.7021 N.am      1 <0>        -0.6405
     26 C17        -0.3606   -1.8585    3.8992 C.ar      1 <0>         0.1192
     27 C18         0.8754   -2.4342    3.6434 C.ar      1 <0>        -0.0909
     28 C19         0.9599   -3.5672    2.8550 C.ar      1 <0>        -0.0512
     29 C20        -0.1851   -4.1222    2.3111 C.ar      1 <0>        -0.0772
     30 C21        -1.4192   -3.5499    2.5576 C.ar      1 <0>        -0.1736
     31 C22        -1.5124   -2.4182    3.3512 C.ar      1 <0>         0.1104
     32 O4         -2.7259   -1.8545    3.5943 O.3       1 <0>        -0.3196
     33 C23        -3.8636   -2.4822    2.9996 C.3       1 <0>         0.0260
     34 Cl2         2.5065   -4.2906    2.5410 Cl        1 <0>        -0.0529
     35 H3          0.3669   -0.0641    0.2170 H         1 <0>         0.0852
     36 H4          1.4082    1.3771    0.2992 H         1 <0>         0.0781
     37 H5         -0.0911    1.4159   -0.6593 H         1 <0>         0.0804
     38 H6          1.3367    1.5083    2.7259 H         1 <0>         0.1516
     39 H7         -2.2519    1.6108    0.4242 H         1 <0>         0.1567
     40 H8         -3.1939    3.0485    5.0926 H         1 <0>         0.4389
     41 H9          2.7137    0.8322    6.1184 H         1 <0>         0.1412
     42 H10         2.0229    1.9687    7.3205 H         1 <0>         0.1208
     43 H11         2.9788    4.1582    6.8857 H         1 <0>         0.1029
     44 H12         4.2718    3.2051    6.1188 H         1 <0>         0.1304
     45 H13         4.0048    4.5204    4.0338 H         1 <0>         0.1127
     46 H14         2.7118    5.4735    4.8007 H         1 <0>         0.0890
     47 H15         4.6984    7.1246    4.0325 H         1 <0>         0.4041
     48 H16         5.7362    7.5176    5.2940 H         1 <0>         0.4110
     49 H17        -1.2938   -0.4761    5.1162 H         1 <0>         0.4168
     50 H18         1.7707   -2.0003    4.0635 H         1 <0>         0.1711
     51 H19        -0.1146   -5.0049    1.6928 H         1 <0>         0.1422
     52 H20        -2.3109   -3.9855    2.1317 H         1 <0>         0.1456
     53 H21        -3.7529   -2.4828    1.9153 H         1 <0>         0.0612
     54 H22        -3.9406   -3.5089    3.3576 H         1 <0>         0.0625
     55 H23        -4.7652   -1.9337    3.2725 H         1 <0>         0.1053
     56 N4          0.9943    3.4944    5.2206 N.4       1 <0>        -0.4955
     57 H24         0.8386    4.0998    6.0351 H         1 <0>         0.4395
     58 H25         0.9565    4.0580    4.3631 H         1 <0>         0.4399
@<TRIPOS>BOND
     1    1    2 1
     2    1   35 1
     3    1   36 1
     4    1   37 1
     5    2    7 ar
     6    2    3 ar
     7    3    4 ar
     8    3   38 1
     9    4   12 1
    10    4    5 ar
    11    5    6 ar
    12    5    9 1
    13    6    7 ar
    14    6    8 1
    15    7   39 1
    16    9   10 am
    17    9   40 1
    18   10   11 2
    19   10   12 1
    20   12   13 1
    21   12   56 1
    22   13   14 1
    23   13   15 1
    24   13   23 1
    25   15   16 1
    26   15   41 1
    27   15   42 1
    28   16   17 1
    29   16   18 1
    30   16   56 1
    31   18   19 1
    32   18   43 1
    33   18   44 1
    34   19   20 1
    35   19   45 1
    36   19   46 1
    37   20   21 2
    38   20   22 am
    39   22   47 1
    40   22   48 1
    41   23   24 2
    42   23   25 am
    43   25   26 1
    44   25   49 1
    45   26   31 ar
    46   26   27 ar
    47   27   28 ar
    48   27   50 1
    49   28   29 ar
    50   28   34 1
    51   29   30 ar
    52   29   51 1
    53   30   31 ar
    54   30   52 1
    55   31   32 1
    56   32   33 1
    57   33   53 1
    58   33   54 1
    59   33   55 1
    60   56   57 1
    61   56   58 1
@<TRIPOS>MOLECULE
ZINC32540717
   57    60     0     0     0
SMALL
USER_CHARGES

@<TRIPOS>ATOM
      1 C1         -0.1001   -2.6541   -2.1329 C.ar      1 <0>        -0.1207
      2 C2          0.4039   -1.3835   -2.3446 C.ar      1 <0>        -0.1169
      3 C3          1.6303   -1.0286   -1.8203 C.ar      1 <0>        -0.1123
      4 C4          2.3609   -1.9530   -1.0762 C.ar      1 <0>        -0.0069
      5 C5          1.8480   -3.2315   -0.8658 C.ar      1 <0>        -0.1035
      6 C6          0.6208   -3.5757   -1.3951 C.ar      1 <0>        -0.1179
      7 C7          3.6800   -1.5776   -0.5106 C.2       1 <0>        -0.1913
      8 C8          4.7474   -1.0944   -1.2065 C.2       1 <0>         0.0818
      9 N1          5.7492   -0.8788   -0.3297 N.pl3     1 <0>        -0.4635
     10 H1          6.6297   -0.5353   -0.5478 H         1 <0>         0.4468
     11 N2          5.3028   -1.2343    0.9487 N.2       1 <0>        -0.2757
     12 C9          4.0587   -1.6500    0.8539 C.2       1 <0>         0.1330
     13 C10         3.2057   -2.1155    1.9734 C.ar      1 <0>        -0.0579
     14 C11         1.8989   -1.6475    2.0977 C.ar      1 <0>        -0.0298
     15 C12         1.1075   -2.0821    3.1401 C.ar      1 <0>        -0.2111
     16 C13         1.6092   -2.9856    4.0682 C.ar      1 <0>         0.1387
     17 C14         2.9087   -3.4558    3.9519 C.ar      1 <0>        -0.1735
     18 C15         3.7082   -3.0301    2.9048 C.ar      1 <0>         0.1784
     19 O1          4.9793   -3.4943    2.7859 O.3       1 <0>        -0.4837
     20 O2          0.8246   -3.4096    5.0933 O.3       1 <0>        -0.3255
     21 C16        -0.5034   -2.8852    5.1538 C.3       1 <0>         0.0236
     22 C17        -1.2291   -3.4730    6.3656 C.3       1 <0>        -0.0007
     23 N3         -0.5740   -3.0152    7.5982 N.4       1 <0>        -0.3869
     24 C18        -0.7196   -1.5594    7.7163 C.3       1 <0>        -0.0129
     25 C19         0.0301   -1.0669    8.9560 C.3       1 <0>        -0.1280
     26 C20        -0.5531   -1.7425   10.2005 C.3       1 <0>        -0.1234
     27 C21        -0.4635   -3.2622   10.0336 C.3       1 <0>        -0.1407
     28 C22        -1.1950   -3.6733    8.7540 C.3       1 <0>        -0.0033
     29 C23         0.2313   -1.3219   11.4166 C.2       1 <0>         0.5198
     30 O3          1.1654   -0.5571   11.3010 O.2       1 <0>        -0.5277
     31 N4         -0.1052   -1.7958   12.6326 N.am      1 <0>        -0.8495
     32 H2         -1.0621   -2.9262   -2.5415 H         1 <0>         0.1217
     33 H3         -0.1631   -0.6678   -2.9215 H         1 <0>         0.1238
     34 H4          2.0233   -0.0365   -1.9868 H         1 <0>         0.1219
     35 H5          2.4100   -3.9518   -0.2898 H         1 <0>         0.1179
     36 H6          0.2225   -4.5664   -1.2330 H         1 <0>         0.1213
     37 H7          4.7847   -0.9162   -2.2711 H         1 <0>         0.1842
     38 H8          1.5062   -0.9444    1.3781 H         1 <0>         0.1378
     39 H9          0.0950   -1.7186    3.2353 H         1 <0>         0.1336
     40 H10         3.2956   -4.1580    4.6756 H         1 <0>         0.1426
     41 H11         5.6381   -2.9605    3.2508 H         1 <0>         0.4020
     42 H12        -0.4615   -1.7999    5.2465 H         1 <0>         0.0888
     43 H13        -1.0410   -3.1516    4.2438 H         1 <0>         0.1124
     44 H14        -2.2680   -3.1430    6.3622 H         1 <0>         0.1509
     45 H15        -1.1934   -4.5614    6.3178 H         1 <0>         0.1444
     46 H16        -0.3070   -1.0803    6.8285 H         1 <0>         0.1342
     47 H17        -1.7760   -1.3066    7.8068 H         1 <0>         0.1336
     48 H18         1.0867   -1.3191    8.8664 H         1 <0>         0.0987
     49 H19        -0.0807    0.0139    9.0429 H         1 <0>         0.1209
     50 H20        -1.5963   -1.4497   10.3190 H         1 <0>         0.1178
     51 H21         0.5829   -3.5599    9.9664 H         1 <0>         0.0967
     52 H22        -0.9272   -3.7504   10.8908 H         1 <0>         0.1182
     53 H23        -2.2412   -3.3754    8.8224 H         1 <0>         0.1337
     54 H24        -1.1333   -4.7547    8.6323 H         1 <0>         0.1375
     55 H25        -0.8522   -2.4075   12.7250 H         1 <0>         0.4032
     56 H26         0.3997   -1.5251   13.4153 H         1 <0>         0.4120
     57 H27         0.4063   -3.2515    7.5646 H         1 <0>         0.4313
@<TRIPOS>BOND
     1    1    6 ar
     2    1    2 ar
     3    1   32 1
     4    2    3 ar
     5    2   33 1
     6    3    4 ar
     7    3   34 1
     8    4    5 ar
     9    4    7 1
    10    5    6 ar
    11    5   35 1
    12    6   36 1
    13    7   12 1
    14    7    8 2
    15    8    9 1
    16    8   37 1
    17    9   10 1
    18    9   11 1
    19   11   12 2
    20   12   13 1
    21   13   18 ar
    22   13   14 ar
    23   14   15 ar
    24   14   38 1
    25   15   16 ar
    26   15   39 1
    27   16   17 ar
    28   16   20 1
    29   17   18 ar
    30   17   40 1
    31   18   19 1
    32   19   41 1
    33   20   21 1
    34   21   22 1
    35   21   42 1
    36   21   43 1
    37   22   23 1
    38   22   44 1
    39   22   45 1
    40   23   28 1
    41   23   24 1
    42   23   57 1
    43   24   25 1
    44   24   46 1
    45   24   47 1
    46   25   26 1
    47   25   48 1
    48   25   49 1
    49   26   27 1
    50   26   29 1
    51   26   50 1
    52   27   28 1
    53   27   51 1
    54   27   52 1
    55   28   53 1
    56   28   54 1
    57   29   30 2
    58   29   31 am
    59   31   55 1
    60   31   56 1
@<TRIPOS>MOLECULE
ZINC40645233
   57    59     0     0     0
SMALL
USER_CHARGES

@<TRIPOS>ATOM
      1 C1         -0.0189    1.5422    0.0105 C.3       1 <0>        -0.1804
      2 C2          0.0021   -0.0041    0.0020 C.3       1 <0>         0.0643
      3 C3          0.6704   -0.4432   -1.2967 C.3       1 <0>        -0.1452
      4 C4          0.9625   -1.9435   -1.2647 C.3       1 <0>         0.1498
      5 C5          1.8924   -2.2229   -0.0837 C.3       1 <0>        -0.1446
      6 C6          1.2326   -1.7978    1.2240 C.3       1 <0>         0.0607
      7 N1          0.7111   -0.4428    1.1910 N.4       1 <0>        -0.4916
      8 C7          2.3137   -1.8592    2.3279 C.3       1 <0>        -0.1794
      9 C8          0.1429   -2.8050    1.6059 C.3       1 <0>        -0.1721
     10 N2          1.6331   -2.3328   -2.5114 N.pl3     1 <0>        -0.7017
     11 C9          1.5455   -3.6392   -2.9669 C.ar      1 <0>         0.5242
     12 C10         2.1819   -4.0206   -4.1443 C.ar      1 <0>        -0.2703
     13 C11         2.0635   -5.3434   -4.5587 C.ar      1 <0>         0.5189
     14 N3          1.3505   -6.1911   -3.8189 N.ar      1 <0>        -0.5853
     15 C12         0.7627   -5.7913   -2.7099 C.ar      1 <0>         0.4214
     16 N4          0.8557   -4.5489   -2.2812 N.ar      1 <0>        -0.5948
     17 N5          2.6782   -5.7729   -5.7247 N.pl3     1 <0>        -0.4844
     18 N6          2.5523   -7.1073   -6.1324 N.am      1 <0>        -0.4975
     19 C13         3.1499   -7.5248   -7.2660 C.2       1 <0>         0.5792
     20 O1          3.7980   -6.7439   -7.9343 O.2       1 <0>        -0.5195
     21 C14         3.0167   -8.9361   -7.6972 C.ar      1 <0>         0.0765
     22 C15         3.6415   -9.3628   -8.8669 C.ar      1 <0>        -0.0995
     23 C16         3.5078  -10.6858   -9.2574 C.ar      1 <0>        -0.0768
     24 C17         2.7535  -11.5364   -8.4641 C.ar      1 <0>        -0.1364
     25 C18         2.1599  -11.0435   -7.3132 C.ar      1 <0>         0.1033
     26 N7          2.3076   -9.7844   -6.9631 N.ar      1 <0>        -0.4617
     27 N8          2.9640   -3.0441   -4.9354 N.pl3     1 <0>         0.0278
     28 O2          4.1429   -2.8925   -4.7139 O.2       1 <0>        -0.1294
     29 O3          2.4240   -2.3981   -5.8031 O.3       1 <0>        -0.1280
     30 C19        -1.4566   -0.4731    0.0185 C.3       1 <0>        -0.1766
     31 H1          1.0037    1.9194    0.0028 H         1 <0>         0.0828
     32 H2         -0.5461    1.9032   -0.8725 H         1 <0>         0.1082
     33 H3         -0.5291    1.8937    0.9073 H         1 <0>         0.0864
     34 H4          0.0110   -0.2211   -2.1392 H         1 <0>         0.1186
     35 H5          1.6061    0.1051   -1.4290 H         1 <0>         0.0968
     36 H6          0.0406   -2.5096   -1.1664 H         1 <0>         0.1183
     37 H7          2.1197   -3.2910   -0.0471 H         1 <0>         0.1165
     38 H8          2.8249   -1.6698   -0.2185 H         1 <0>         0.0916
     39 H9          1.4892    0.2036    1.3564 H         1 <0>         0.4249
     40 H10         3.1303   -1.1831    2.0748 H         1 <0>         0.0817
     41 H11         1.8771   -1.5607    3.2810 H         1 <0>         0.0846
     42 H12         2.6957   -2.8771    2.4062 H         1 <0>         0.1071
     43 H13         0.5881   -3.7920    1.7307 H         1 <0>         0.1063
     44 H14        -0.3253   -2.4967    2.5407 H         1 <0>         0.0820
     45 H15        -0.6093   -2.8426    0.8180 H         1 <0>         0.0836
     46 H16         2.1374   -1.6759   -3.0164 H         1 <0>         0.4163
     47 H17         0.1915   -6.5036   -2.1331 H         1 <0>         0.2219
     48 H18         3.1955   -5.1495   -6.2582 H         1 <0>         0.4468
     49 H19         2.0349   -7.7307   -5.5989 H         1 <0>         0.4500
     50 H20         4.2216   -8.6724   -9.4612 H         1 <0>         0.1527
     51 H21         3.9803  -11.0459  -10.1594 H         1 <0>         0.1502
     52 H22         2.6295  -12.5730   -8.7406 H         1 <0>         0.1484
     53 H23         1.5716  -11.7034   -6.6929 H         1 <0>         0.1700
     54 H24        -1.9712   -0.0904   -0.8629 H         1 <0>         0.1058
     55 H25        -1.4880   -1.5626    0.0131 H         1 <0>         0.0835
     56 H26        -1.9481   -0.0999    0.9169 H         1 <0>         0.0857
     57 H27         0.0927   -0.3170    1.9984 H         1 <0>         0.4281
@<TRIPOS>BOND
     1    1    2 1
     2    1   31 1
     3    1   32 1
     4    1   33 1
     5    2    7 1
     6    2    3 1
     7    2   30 1
     8    3    4 1
     9    3   34 1
    10    3   35 1
    11    4    5 1
    12    4   10 1
    13    4   36 1
    14    5    6 1
    15    5   37 1
    16    5   38 1
    17    6    7 1
    18    6    8 1
    19    6    9 1
    20    7   39 1
    21    7   57 1
    22    8   40 1
    23    8   41 1
    24    8   42 1
    25    9   43 1
    26    9   44 1
    27    9   45 1
    28   10   11 1
    29   10   46 1
    30   11   16 ar
    31   11   12 ar
    32   12   13 ar
    33   12   27 1
    34   13   14 ar
    35   13   17 1
    36   14   15 ar
    37   15   16 ar
    38   15   47 1
    39   17   18 1
    40   17   48 1
    41   18   19 am
    42   18   49 1
    43   19   20 2
    44   19   21 1
    45   21   26 ar
    46   21   22 ar
    47   22   23 ar
    48   22   50 1
    49   23   24 ar
    50   23   51 1
    51   24   25 ar
    52   24   52 1
    53   25   26 ar
    54   25   53 1
    55   27   28 2
    56   27   29 1
    57   30   54 1
    58   30   55 1
    59   30   56 1
@<TRIPOS>MOLECULE
ZINC40778048
   58    61     0     0     0
SMALL
USER_CHARGES

@<TRIPOS>ATOM
      1 C1         -3.0318   -3.6176    6.1038 C.3       1 <0>        -0.1564
      2 C2         -2.3020   -4.0897    4.8446 C.3       1 <0>         0.0644
      3 O1         -2.8786   -3.4635    3.6968 O.3       1 <0>        -0.3403
      4 C3         -2.3467   -3.7744    2.4983 C.2       1 <0>         0.5048
      5 O2         -1.4187   -4.5560    2.4297 O.2       1 <0>        -0.5023
      6 C4         -2.8902   -3.1669    1.2713 C.ar      1 <0>        -0.1225
      7 C5         -3.9757   -2.2890    1.3423 C.ar      1 <0>        -0.0485
      8 C6         -4.4791   -1.7245    0.1913 C.ar      1 <0>        -0.0995
      9 C7         -3.9151   -2.0218   -1.0397 C.ar      1 <0>        -0.0676
     10 C8         -2.8434   -2.8862   -1.1268 C.ar      1 <0>        -0.1125
     11 C9         -2.3176   -3.4614    0.0236 C.ar      1 <0>         0.1283
     12 N1         -1.2344   -4.3275   -0.0609 N.pl3     1 <0>        -0.6371
     13 C10        -1.4440   -5.7021   -0.0933 C.ar      1 <0>         0.4337
     14 C11        -0.3625   -6.5846   -0.0755 C.ar      1 <0>         0.0647
     15 C12        -0.6291   -7.9548   -0.1091 C.ar      1 <0>         0.4413
     16 N2         -1.8945   -8.3642   -0.1566 N.ar      1 <0>        -0.4848
     17 C13        -2.8867   -7.4973   -0.1719 C.ar      1 <0>         0.3762
     18 N3         -2.6788   -6.1966   -0.1363 N.ar      1 <0>        -0.5352
     19 N4          0.4107   -8.8766   -0.0938 N.pl3     1 <0>        -0.4638
     20 N5          0.1308  -10.2490   -0.1279 N.pl3     1 <0>        -0.3728
     21 C14        -0.2790  -10.8489   -1.3212 C.ar      1 <0>         0.1868
     22 C15         0.1310  -10.3246   -2.5407 C.ar      1 <0>        -0.1600
     23 C16        -0.2760  -10.9200   -3.7184 C.ar      1 <0>        -0.0874
     24 C17        -1.0908  -12.0369   -3.6847 C.ar      1 <0>        -0.1391
     25 C18        -1.5011  -12.5612   -2.4726 C.ar      1 <0>        -0.0821
     26 C19        -1.0928  -11.9744   -1.2910 C.ar      1 <0>        -0.1402
     27 C20         0.2616  -11.0176    1.0315 C.ar      1 <0>         0.1571
     28 C21         0.9237  -12.2381    0.9866 C.ar      1 <0>        -0.1265
     29 C22         1.0510  -12.9953    2.1344 C.ar      1 <0>        -0.0916
     30 C23         0.5204  -12.5399    3.3276 C.ar      1 <0>        -0.1221
     31 C24        -0.1397  -11.3257    3.3757 C.ar      1 <0>        -0.0973
     32 C25        -0.2653  -10.5605    2.2329 C.ar      1 <0>        -0.1332
     33 N6          0.9569   -6.1076   -0.0255 N.pl3     1 <0>        -0.8488
     34 H1         -2.5920   -4.0953    6.9793 H         1 <0>         0.0867
     35 H2         -2.9371   -2.5355    6.1943 H         1 <0>         0.0712
     36 H3         -4.0860   -3.8856    6.0348 H         1 <0>         0.0701
     37 H4         -1.2477   -3.8217    4.9136 H         1 <0>         0.0722
     38 H5         -2.3966   -5.1718    4.7541 H         1 <0>         0.0690
     39 H6         -4.4193   -2.0541    2.2986 H         1 <0>         0.1546
     40 H7         -5.3181   -1.0467    0.2480 H         1 <0>         0.1501
     41 H8         -4.3175   -1.5741   -1.9363 H         1 <0>         0.1496
     42 H9         -2.4099   -3.1125   -2.0897 H         1 <0>         0.1470
     43 H10        -0.3320   -3.9735   -0.0973 H         1 <0>         0.4366
     44 H11        -3.9017   -7.8642   -0.2111 H         1 <0>         0.2433
     45 H12         1.3303   -8.5699   -0.0594 H         1 <0>         0.4359
     46 H13         0.7670   -9.4521   -2.5677 H         1 <0>         0.1150
     47 H14         0.0421  -10.5128   -4.6667 H         1 <0>         0.1264
     48 H15        -1.4076  -12.5006   -4.6072 H         1 <0>         0.1274
     49 H16        -2.1380  -13.4331   -2.4500 H         1 <0>         0.1312
     50 H17        -1.4097  -12.3872   -0.3447 H         1 <0>         0.1279
     51 H18         1.3380  -12.5945    0.0551 H         1 <0>         0.1298
     52 H19         1.5653  -13.9444    2.1002 H         1 <0>         0.1339
     53 H20         0.6214  -13.1341    4.2237 H         1 <0>         0.1302
     54 H21        -0.5535  -10.9733    4.3090 H         1 <0>         0.1277
     55 H22        -0.7767   -9.6100    2.2722 H         1 <0>         0.1142
     56 H23         1.1270   -5.1528   -0.0029 H         1 <0>         0.4103
     57 H24         1.6985   -6.7327   -0.0136 H         1 <0>         0.4124
     58 H25        -3.4364   -5.5909   -0.1453 H         1 <0>         0.4418
@<TRIPOS>BOND
     1    1    2 1
     2    1   34 1
     3    1   35 1
     4    1   36 1
     5    2    3 1
     6    2   37 1
     7    2   38 1
     8    3    4 1
     9    4    5 2
    10    4    6 1
    11    6   11 ar
    12    6    7 ar
    13    7    8 ar
    14    7   39 1
    15    8    9 ar
    16    8   40 1
    17    9   10 ar
    18    9   41 1
    19   10   11 ar
    20   10   42 1
    21   11   12 1
    22   12   13 1
    23   12   43 1
    24   13   18 ar
    25   13   14 ar
    26   14   15 ar
    27   14   33 1
    28   15   16 ar
    29   15   19 1
    30   16   17 ar
    31   17   18 ar
    32   17   44 1
    33   18   58 1
    34   19   20 1
    35   19   45 1
    36   20   21 1
    37   20   27 1
    38   21   26 ar
    39   21   22 ar
    40   22   23 ar
    41   22   46 1
    42   23   24 ar
    43   23   47 1
    44   24   25 ar
    45   24   48 1
    46   25   26 ar
    47   25   49 1
    48   26   50 1
    49   27   32 ar
    50   27   28 ar
    51   28   29 ar
    52   28   51 1
    53   29   30 ar
    54   29   52 1
    55   30   31 ar
    56   30   53 1
    57   31   32 ar
    58   31   54 1
    59   32   55 1
    60   33   56 1
    61   33   57 1
@<TRIPOS>MOLECULE
ZINC39357290
   61    65     0     0     0
SMALL
USER_CHARGES

@<TRIPOS>ATOM
      1 C1         -0.0187    1.5258    0.0104 C.3       1 <0>        -0.1497
      2 C2          0.0021   -0.0041    0.0020 C.3       1 <0>         0.0848
      3 H1         -1.0190   -0.3854    0.0097 H         1 <0>         0.0958
      4 C3          0.7318   -0.5047   -1.2518 C.3       1 <0>        -0.1697
      5 C4          0.8020   -2.0091   -1.1737 C.2       1 <0>         0.5288
      6 O1          0.9125   -2.6575   -2.1927 O.2       1 <0>        -0.4965
      7 N1          0.7442   -2.6375    0.0078 N.am      1 <0>        -0.6505
      8 C5          0.6768   -4.1101    0.0429 C.3       1 <0>         0.4079
      9 H2          0.4037   -4.4858   -0.9432 H         1 <0>         0.1574
     10 N2         -0.3307   -4.5216    1.0185 N.pl3     1 <0>        -0.6600
     11 C6         -0.8268   -3.7304    1.9125 C.cat     1 <0>         0.7422
     12 N3         -0.4731   -2.4051    2.0156 N.pl3     1 <0>        -0.6960
     13 C7          0.7251   -1.9438    1.2954 C.3       1 <0>         0.5349
     14 H3          1.6082   -2.2361    1.8635 H         1 <0>         0.1285
     15 N4          0.7220   -0.4951    1.1812 N.3       1 <0>        -0.6753
     16 N5         -1.7484   -4.2357    2.7988 N.pl3     1 <0>        -0.6956
     17 C8         -2.3307   -3.3670    3.8247 C.3       1 <0>         0.1001
     18 C9         -3.3190   -4.1705    4.6724 C.3       1 <0>        -0.0458
     19 C10        -3.9180   -3.2770    5.7277 C.2       1 <0>        -0.2013
     20 C11        -3.4890   -3.1361    6.9919 C.2       1 <0>         0.0877
     21 N6         -4.2793   -2.2382    7.6556 N.pl3     1 <0>        -0.5891
     22 H4         -4.1648   -1.9725    8.5815 H         1 <0>         0.4214
     23 C12        -5.2628   -1.7666    6.8118 C.ar      1 <0>         0.0626
     24 C13        -5.0749   -2.3928    5.5664 C.ar      1 <0>        -0.0594
     25 C14        -5.9310   -2.1015    4.5024 C.ar      1 <0>        -0.1238
     26 C15        -6.9571   -1.1949    4.6811 C.ar      1 <0>         0.1121
     27 C16        -7.1384   -0.5742    5.9140 C.ar      1 <0>        -0.1760
     28 C17        -6.3047   -0.8598    6.9725 C.ar      1 <0>        -0.0818
     29 O2         -7.7937   -0.9069    3.6484 O.3       1 <0>        -0.3190
     30 C18        -8.8340    0.0396    3.9009 C.3       1 <0>         0.0259
     31 C19         2.0201   -4.6664    0.4394 C.ar      1 <0>        -0.1443
     32 C20         3.1750   -3.9770    0.1206 C.ar      1 <0>        -0.0867
     33 C21         4.4072   -4.4872    0.4843 C.ar      1 <0>        -0.1093
     34 C22         4.4844   -5.6867    1.1671 C.ar      1 <0>        -0.0940
     35 C23         3.3294   -6.3757    1.4866 C.ar      1 <0>        -0.1096
     36 C24         2.0970   -5.8633    1.1267 C.ar      1 <0>        -0.1017
     37 H5          1.0039    1.9031    0.0027 H         1 <0>         0.0674
     38 H6         -0.5459    1.8868   -0.8726 H         1 <0>         0.0777
     39 H7         -0.5289    1.8773    0.9072 H         1 <0>         0.0760
     40 H8          0.1805   -0.2065   -2.1436 H         1 <0>         0.1264
     41 H9          1.7390   -0.0892   -1.2834 H         1 <0>         0.1187
     42 H10        -0.9998   -1.7900    2.5496 H         1 <0>         0.4426
     43 H11        -2.0131   -5.1673    2.7448 H         1 <0>         0.4322
     44 H12        -1.5380   -2.9768    4.4630 H         1 <0>         0.0926
     45 H13        -2.8526   -2.5385    3.3458 H         1 <0>         0.0895
     46 H14        -4.1117   -4.5608    4.0340 H         1 <0>         0.0858
     47 H15        -2.7972   -4.9991    5.1512 H         1 <0>         0.0859
     48 H16        -2.6449   -3.6552    7.4215 H         1 <0>         0.1728
     49 H17        -5.7912   -2.5821    3.5454 H         1 <0>         0.1264
     50 H18        -7.9438    0.1336    6.0433 H         1 <0>         0.1358
     51 H19        -6.4536   -0.3714    7.9242 H         1 <0>         0.1280
     52 H20        -9.4742   -0.3293    4.7022 H         1 <0>         0.0573
     53 H21        -8.3946    0.9924    4.1963 H         1 <0>         0.0565
     54 H22        -9.4269    0.1777    2.9967 H         1 <0>         0.1027
     55 H23         3.1147   -3.0399   -0.4129 H         1 <0>         0.1210
     56 H24         5.3096   -3.9490    0.2346 H         1 <0>         0.1338
     57 H25         5.4471   -6.0857    1.4506 H         1 <0>         0.1340
     58 H26         3.3897   -7.3129    2.0198 H         1 <0>         0.1338
     59 H27         1.1944   -6.3997    1.3797 H         1 <0>         0.1199
     60 H28         1.6618   -0.1290    1.2095 H         1 <0>         0.3856
     61 H29        -0.6448   -5.4390    0.9936 H         1 <0>         0.4423
@<TRIPOS>BOND
     1    1    2 1
     2    1   37 1
     3    1   38 1
     4    1   39 1
     5    2    3 1
     6    2   15 1
     7    2    4 1
     8    4    5 1
     9    4   40 1
    10    4   41 1
    11    5    6 2
    12    5    7 am
    13    7   13 1
    14    7    8 1
    15    8    9 1
    16    8   10 1
    17    8   31 1
    18   10   11 2
    19   10   61 1
    20   11   12 1
    21   11   16 1
    22   12   13 1
    23   12   42 1
    24   13   14 1
    25   13   15 1
    26   15   60 1
    27   16   17 1
    28   16   43 1
    29   17   18 1
    30   17   44 1
    31   17   45 1
    32   18   19 1
    33   18   46 1
    34   18   47 1
    35   19   24 1
    36   19   20 2
    37   20   21 1
    38   20   48 1
    39   21   22 1
    40   21   23 1
    41   23   28 ar
    42   23   24 ar
    43   24   25 ar
    44   25   26 ar
    45   25   49 1
    46   26   27 ar
    47   26   29 1
    48   27   28 ar
    49   27   50 1
    50   28   51 1
    51   29   30 1
    52   30   52 1
    53   30   53 1
    54   30   54 1
    55   31   36 ar
    56   31   32 ar
    57   32   33 ar
    58   32   55 1
    59   33   34 ar
    60   33   56 1
    61   34   35 ar
    62   34   57 1
    63   35   36 ar
    64   35   58 1
    65   36   59 1
@<TRIPOS>MOLECULE
ZINC03850986
   47    49     0     0     0
SMALL
USER_CHARGES
N-(2-amino-1,2-diphenyl-ethyl)-4-hydroxy-benzenesulfonamide
@<TRIPOS>ATOM
      1 C1          1.2084   -0.6789   -0.0136 C.ar      1 <0>        -0.0853
      2 C2          0.0021   -0.0041    0.0020 C.ar      1 <0>        -0.1055
      3 C3         -0.0167    1.3781    0.0096 C.ar      1 <0>        -0.0712
      4 C4          1.1709    2.0855    0.0021 C.ar      1 <0>        -0.1475
      5 C5          2.3773    1.4107   -0.0136 C.ar      1 <0>        -0.1204
      6 C6          2.3961    0.0285   -0.0212 C.ar      1 <0>        -0.1043
      7 C7          1.1505    3.5924    0.0099 C.3       1 <0>         0.0884
      8 H1          0.1833    3.9407    0.3723 H         1 <0>         0.1565
      9 C8          1.3807    4.1129   -1.4103 C.3       1 <0>         0.1844
     10 H2          2.3055    3.6929   -1.8058 H         1 <0>         0.1265
     11 C9          0.2268    3.7031   -2.2887 C.ar      1 <0>        -0.1288
     12 C10        -0.9574    4.4152   -2.2510 C.ar      1 <0>        -0.0963
     13 C11        -2.0143    4.0419   -3.0600 C.ar      1 <0>        -0.1146
     14 C12        -1.8903    2.9508   -3.8997 C.ar      1 <0>        -0.0937
     15 C13        -0.7077    2.2359   -3.9338 C.ar      1 <0>        -0.1108
     16 C14         0.3507    2.6118   -3.1280 C.ar      1 <0>        -0.0876
     17 N1          1.4799    5.5743   -1.3846 N.pl3     1 <0>        -1.1318
     18 S1          2.5085    6.3528   -2.4231 S.o2      1 <0>         2.6908
     19 O1          2.3592    7.7441   -2.1757 O.2       1 <0>        -0.9374
     20 O2          3.7624    5.6917   -2.3243 O.2       1 <0>        -0.9503
     21 C15         1.9150    6.0653   -4.0571 C.ar      1 <0>        -0.6909
     22 C16         2.3619    4.9686   -4.7707 C.ar      1 <0>         0.0001
     23 C17         1.8938    4.7379   -6.0498 C.ar      1 <0>        -0.1631
     24 C18         0.9832    5.6140   -6.6225 C.ar      1 <0>         0.1806
     25 C19         0.5407    6.7168   -5.9065 C.ar      1 <0>        -0.1638
     26 C20         1.0075    6.9400   -4.6256 C.ar      1 <0>         0.0047
     27 O3          0.5252    5.3920   -7.8825 O.3       1 <0>        -0.4970
     28 H3          3.1202    3.7823    0.5778 H         1 <0>         0.4375
     29 H4          2.1795    5.0977    0.9658 H         1 <0>         0.4379
     30 H5          1.2231   -1.7588   -0.0196 H         1 <0>         0.1358
     31 H6         -0.9258   -0.5567    0.0079 H         1 <0>         0.1362
     32 H7         -0.9592    1.9054    0.0170 H         1 <0>         0.1324
     33 H8          3.3052    1.9634   -0.0192 H         1 <0>         0.1230
     34 H9          3.3386   -0.4987   -0.0327 H         1 <0>         0.1366
     35 H10        -1.0557    5.2652   -1.5920 H         1 <0>         0.1225
     36 H11        -2.9382    4.6007   -3.0336 H         1 <0>         0.1282
     37 H12        -2.7172    2.6572   -4.5292 H         1 <0>         0.1279
     38 H13        -0.6108    1.3834   -4.5898 H         1 <0>         0.1280
     39 H14         1.2745    2.0530   -3.1545 H         1 <0>         0.1233
     40 H15         0.9432    6.0860   -0.7593 H         1 <0>         0.4233
     41 H16         3.0741    4.2893   -4.3260 H         1 <0>         0.1396
     42 H17         2.2398    3.8787   -6.6051 H         1 <0>         0.1410
     43 H18        -0.1678    7.4005   -6.3502 H         1 <0>         0.1424
     44 H19         0.6631    7.7982   -4.0677 H         1 <0>         0.1442
     45 H20         1.0588    5.8072   -8.5738 H         1 <0>         0.4068
     46 N2          2.2063    4.0807    0.9145 N.4       1 <0>        -0.6455
     47 H21         2.0522    3.6937    1.8530 H         1 <0>         0.4471
@<TRIPOS>BOND
     1    1    6 ar
     2    1    2 ar
     3    1   30 1
     4    2    3 ar
     5    2   31 1
     6    3    4 ar
     7    3   32 1
     8    4    5 ar
     9    4    7 1
    10    5    6 ar
    11    5   33 1
    12    6   34 1
    13    7    8 1
    14    7    9 1
    15    7   46 1
    16    9   10 1
    17    9   11 1
    18    9   17 1
    19   11   16 ar
    20   11   12 ar
    21   12   13 ar
    22   12   35 1
    23   13   14 ar
    24   13   36 1
    25   14   15 ar
    26   14   37 1
    27   15   16 ar
    28   15   38 1
    29   16   39 1
    30   17   18 1
    31   17   40 1
    32   18   19 2
    33   18   20 2
    34   18   21 1
    35   21   26 ar
    36   21   22 ar
    37   22   23 ar
    38   22   41 1
    39   23   24 ar
    40   23   42 1
    41   24   25 ar
    42   24   27 1
    43   25   26 ar
    44   25   43 1
    45   26   44 1
    46   27   45 1
    47   28   46 1
    48   29   46 1
    49   46   47 1
@<TRIPOS>MOLECULE
ZINC13841712
   42    44     0     0     0
SMALL
USER_CHARGES
4-amino-N'-[[3-[(2-chlorophenyl)methoxy]phenyl]methyleneamino]-1,2,5-oxadiazole-3-carboxamidine
@<TRIPOS>ATOM
      1 C1         -0.0605    4.4848    0.0782 C.ar      1 <0>        -0.1126
      2 C2         -1.2478    3.7764    0.0886 C.ar      1 <0>        -0.1003
      3 C3         -1.2285    2.3947    0.0715 C.ar      1 <0>        -0.1048
      4 C4         -0.0205    1.7200    0.0547 C.ar      1 <0>        -0.0297
      5 C5          1.1671    2.4293    0.0444 C.ar      1 <0>        -0.0905
      6 C6          1.1465    3.8115    0.0561 C.ar      1 <0>        -0.0877
      7 C7          2.4831    1.6954    0.0198 C.3       1 <0>         0.1002
      8 O1          3.5553    2.6401    0.0131 O.3       1 <0>        -0.3050
      9 C8          4.8186    2.1394   -0.0087 C.ar      1 <0>         0.1323
     10 C9          5.0202    0.7651   -0.0233 C.ar      1 <0>        -0.1639
     11 C10         6.3027    0.2482   -0.0460 C.ar      1 <0>        -0.0837
     12 C11         7.3923    1.0938   -0.0543 C.ar      1 <0>        -0.0992
     13 C12         7.2006    2.4794   -0.0397 C.ar      1 <0>        -0.0619
     14 C13         5.9026    2.9992   -0.0221 C.ar      1 <0>        -0.1020
     15 C14         8.3593    3.3856   -0.0484 C.2       1 <0>         0.2156
     16 N1          9.5710    2.8968   -0.0699 N.2       1 <0>        -0.3301
     17 N2         10.5871    3.6915   -0.0775 N.pl3     1 <0>        -0.4480
     18 C15        11.8070    3.1993   -0.0991 C.cat     1 <0>         0.6447
     19 C16        12.9701    4.1091   -0.1078 C.2       1 <0>        -0.1094
     20 C17        12.9910    5.5878   -0.2067 C.2       1 <0>         0.3344
     21 N3         14.2747    5.8581   -0.1648 N.2       1 <0>        -0.3786
     22 O2         14.9013    4.8290   -0.0732 O.3       1 <0>         0.4045
     23 N4         14.2513    3.8108   -0.0355 N.2       1 <0>        -0.2710
     24 N5         11.9215    6.4663   -0.3143 N.pl3     1 <0>        -0.8198
     25 N6         11.9993    1.8346   -0.1135 N.pl3     1 <0>        -0.7626
     26 Cl1         0.0046   -0.0157    0.0394 Cl        1 <0>        -0.0629
     27 H1         -0.0761    5.5646    0.0870 H         1 <0>         0.1337
     28 H2         -2.1905    4.3030    0.1054 H         1 <0>         0.1373
     29 H3         -2.1561    1.8415    0.0755 H         1 <0>         0.1399
     30 H4          2.0736    4.3654    0.0477 H         1 <0>         0.1397
     31 H5          2.5632    1.0562    0.9114 H         1 <0>         0.0864
     32 H6          2.5383    1.0717   -0.8846 H         1 <0>         0.0864
     33 H7          4.1715    0.0972   -0.0173 H         1 <0>         0.1402
     34 H8          6.4516   -0.8214   -0.0577 H         1 <0>         0.1393
     35 H9          8.3925    0.6866   -0.0717 H         1 <0>         0.1335
     36 H10         5.7468    4.0679   -0.0153 H         1 <0>         0.1448
     37 H11         8.2057    4.4748   -0.0368 H         1 <0>         0.1494
     38 H12        12.1036    7.5492   -0.3792 H         1 <0>         0.4693
     39 H13        10.8919    6.0795   -0.3347 H         1 <0>         0.4200
     40 H14        13.0192    1.4230   -0.1316 H         1 <0>         0.4795
     41 H15        11.1328    1.1570   -0.1069 H         1 <0>         0.4767
     42 H16        10.4336    4.7807   -0.0659 H         1 <0>         0.4156
@<TRIPOS>BOND
     1    1    6 ar
     2    1    2 ar
     3    1   27 1
     4    2    3 ar
     5    2   28 1
     6    3    4 ar
     7    3   29 1
     8    4    5 ar
     9    4   26 1
    10    5    6 ar
    11    5    7 1
    12    6   30 1
    13    7    8 1
    14    7   31 1
    15    7   32 1
    16    8    9 1
    17    9   14 ar
    18    9   10 ar
    19   10   11 ar
    20   10   33 1
    21   11   12 ar
    22   11   34 1
    23   12   13 ar
    24   12   35 1
    25   13   14 ar
    26   13   15 1
    27   14   36 1
    28   15   16 2
    29   15   37 1
    30   16   17 1
    31   17   18 2
    32   17   42 1
    33   18   19 1
    34   18   25 1
    35   19   23 2
    36   19   20 1
    37   20   21 2
    38   20   24 1
    39   21   22 1
    40   22   23 1
    41   24   38 1
    42   24   39 1
    43   25   40 1
    44   25   41 1
@<TRIPOS>MOLECULE
ZINC39661755
   64    67     0     0     0
SMALL
USER_CHARGES

@<TRIPOS>ATOM
      1 C1          1.5348   -3.5621   -2.0078 C.ar      1 <0>        -0.1027
      2 C2          2.8281   -3.0961   -2.1574 C.ar      1 <0>        -0.1255
      3 C3          3.3280   -2.8345   -3.4225 C.ar      1 <0>         0.0872
      4 C4          2.5258   -3.0417   -4.5410 C.ar      1 <0>         0.0833
      5 C5          1.2311   -3.5086   -4.3841 C.ar      1 <0>        -0.1252
      6 C6          0.7383   -3.7678   -3.1183 C.ar      1 <0>        -0.0855
      7 C7         -0.6705   -4.2757   -2.9495 C.3       1 <0>        -0.0851
      8 C8         -1.6258   -3.0899   -2.8007 C.3       1 <0>         0.1198
      9 N1         -2.9952   -3.5837   -2.6366 N.am      1 <0>        -0.7322
     10 C9         -4.0124   -2.7122   -2.4868 C.2       1 <0>         0.5115
     11 O1         -3.7939   -1.5192   -2.4880 O.2       1 <0>        -0.5064
     12 C10        -5.4211   -3.2201   -2.3180 C.3       1 <0>        -0.1144
     13 H1         -5.4216   -4.1581   -1.7628 H         1 <0>         0.1208
     14 C11        -6.2899   -2.1665   -1.5951 C.3       1 <0>         0.1206
     15 N2         -6.9566   -1.4181   -2.6866 N.am      1 <0>        -0.6141
     16 C12        -7.3012   -2.4556   -3.6880 C.3       1 <0>         0.0877
     17 C13        -6.0900   -3.4095   -3.6898 C.3       1 <0>        -0.0734
     18 C14        -5.1223   -3.0297   -4.8065 C.3       1 <0>        -0.1493
     19 C15        -5.7904   -3.2803   -6.1614 C.3       1 <0>        -0.0099
     20 N3         -6.1638   -4.6957   -6.2705 N.4       1 <0>        -0.5048
     21 C16        -7.1648   -5.0298   -5.2502 C.3       1 <0>        -0.0111
     22 C17        -6.5550   -4.8529   -3.8567 C.3       1 <0>        -0.1346
     23 C18        -7.1958   -0.0934   -2.7538 C.2       1 <0>         0.5862
     24 O2         -6.7393    0.6502   -1.9075 O.2       1 <0>        -0.4923
     25 C19        -8.0133    0.4552   -3.8568 C.ar      1 <0>        -0.1011
     26 C20        -7.9126    1.8047   -4.1995 C.ar      1 <0>        -0.0199
     27 C21        -8.6772    2.3115   -5.2298 C.ar      1 <0>        -0.1508
     28 C22        -9.5434    1.4859   -5.9241 C.ar      1 <0>        -0.0780
     29 C23        -9.6494    0.1456   -5.5896 C.ar      1 <0>         0.0980
     30 C24        -8.8842   -0.3751   -4.5631 C.ar      1 <0>        -0.1153
     31 F1        -10.4979   -0.6547   -6.2713 F         1 <0>        -0.1239
     32 C25        -8.5690    3.7684   -5.5996 C.3       1 <0>         0.5109
     33 F2         -7.5740    3.9306   -6.5696 F         1 <0>        -0.1689
     34 F3         -9.7939    4.2123   -6.1092 F         1 <0>        -0.1687
     35 F4         -8.2386    4.5147   -4.4633 F         1 <0>        -0.1659
     36 O3          3.0119   -2.7858   -5.7851 O.3       1 <0>        -0.4872
     37 O4          4.5996   -2.3757   -3.5713 O.3       1 <0>        -0.4867
     38 H2          1.1478   -3.7700   -1.0212 H         1 <0>         0.1318
     39 H3          3.4484   -2.9359   -1.2879 H         1 <0>         0.1381
     40 H4          0.6067   -3.6702   -5.2503 H         1 <0>         0.1302
     41 H5         -0.9526   -4.8620   -3.8241 H         1 <0>         0.0776
     42 H6         -0.7268   -4.9017   -2.0589 H         1 <0>         0.0844
     43 H7         -1.3436   -2.5036   -1.9261 H         1 <0>         0.0764
     44 H8         -1.5695   -2.4640   -3.6913 H         1 <0>         0.0727
     45 H9         -3.1700   -4.5378   -2.6357 H         1 <0>         0.3986
     46 H10        -7.0304   -2.6546   -0.9615 H         1 <0>         0.0922
     47 H11        -5.6636   -1.4985   -1.0037 H         1 <0>         0.1064
     48 H12        -8.2035   -2.9886   -3.3885 H         1 <0>         0.0938
     49 H13        -7.4328   -2.0057   -4.6720 H         1 <0>         0.0911
     50 H14        -4.8615   -1.9750   -4.7189 H         1 <0>         0.1225
     51 H15        -4.2200   -3.6361   -4.7280 H         1 <0>         0.1001
     52 H16        -6.6838   -2.6615   -6.2458 H         1 <0>         0.1310
     53 H17        -5.0955   -3.0253   -6.9616 H         1 <0>         0.1405
     54 H18        -6.5481   -4.8711   -7.1868 H         1 <0>         0.4351
     55 H19        -8.0257   -4.3697   -5.3563 H         1 <0>         0.1319
     56 H20        -7.4828   -6.0644   -5.3787 H         1 <0>         0.1422
     57 H21        -5.7040   -5.5247   -3.7439 H         1 <0>         0.0999
     58 H22        -7.3044   -5.0837   -3.0996 H         1 <0>         0.1240
     59 H23        -7.2373    2.4511   -3.6587 H         1 <0>         0.1606
     60 H24       -10.1397    1.8879   -6.7298 H         1 <0>         0.1604
     61 H25        -8.9636   -1.4209   -4.3054 H         1 <0>         0.1546
     62 H26         3.4458   -3.5432   -6.2012 H         1 <0>         0.3901
     63 H27         5.2607   -3.0745   -3.6704 H         1 <0>         0.3919
     64 H28        -5.3447   -5.2695   -6.1367 H         1 <0>         0.4288
@<TRIPOS>BOND
     1    1    6 ar
     2    1    2 ar
     3    1   38 1
     4    2    3 ar
     5    2   39 1
     6    3    4 ar
     7    3   37 1
     8    4    5 ar
     9    4   36 1
    10    5    6 ar
    11    5   40 1
    12    6    7 1
    13    7    8 1
    14    7   41 1
    15    7   42 1
    16    8    9 1
    17    8   43 1
    18    8   44 1
    19    9   10 am
    20    9   45 1
    21   10   11 2
    22   10   12 1
    23   12   13 1
    24   12   17 1
    25   12   14 1
    26   14   15 1
    27   14   46 1
    28   14   47 1
    29   15   16 1
    30   15   23 am
    31   16   17 1
    32   16   48 1
    33   16   49 1
    34   17   22 1
    35   17   18 1
    36   18   19 1
    37   18   50 1
    38   18   51 1
    39   19   20 1
    40   19   52 1
    41   19   53 1
    42   20   21 1
    43   20   54 1
    44   20   64 1
    45   21   22 1
    46   21   55 1
    47   21   56 1
    48   22   57 1
    49   22   58 1
    50   23   24 2
    51   23   25 1
    52   25   30 ar
    53   25   26 ar
    54   26   27 ar
    55   26   59 1
    56   27   28 ar
    57   27   32 1
    58   28   29 ar
    59   28   60 1
    60   29   30 ar
    61   29   31 1
    62   30   61 1
    63   32   33 1
    64   32   34 1
    65   32   35 1
    66   36   62 1
    67   37   63 1
@<TRIPOS>MOLECULE
ZINC44253905
   39    40     0     0     0
SMALL
USER_CHARGES

@<TRIPOS>ATOM
      1 C1         -2.1806    0.2165    0.7548 C.3       1 <0>         0.0682
      2 N1         -1.2254   -0.8819    0.5886 N.pl3     1 <0>        -0.3073
      3 C2         -0.3753   -1.0521   -0.4577 C.2       1 <0>         0.0529
      4 C3          0.3360   -2.1905   -0.2250 C.2       1 <0>        -0.2104
      5 C4         -0.0942   -2.7230    0.9929 C.2       1 <0>         0.0171
      6 N2         -1.0214   -1.9405    1.4828 N.2       1 <0>        -0.1794
      7 C5          0.4263   -3.9822    1.6367 C.3       1 <0>         0.5503
      8 F1          1.7939   -3.8424    1.8961 F         1 <0>        -0.1587
      9 F2         -0.2554   -4.2082    2.8373 F         1 <0>        -0.1494
     10 F3          0.2235   -5.0650    0.7743 F         1 <0>        -0.1603
     11 C6          1.3980   -2.7724   -1.1221 C.3       1 <0>         0.1339
     12 H1          1.6175   -3.7935   -0.8103 H         1 <0>         0.1632
     13 C7          2.6682   -1.9251   -1.0246 C.3       1 <0>        -0.1739
     14 C8          3.7762   -2.5899   -1.8003 C.2       1 <0>         0.5172
     15 O1          3.5701   -3.6381   -2.3745 O.2       1 <0>        -0.5529
     16 N3          4.9961   -2.0196   -1.8559 N.am      1 <0>        -0.8314
     17 N4          0.9176   -2.7768   -2.5103 N.4       1 <0>        -0.6331
     18 S1         -0.2212    0.0055   -1.8586 S.3       1 <0>         0.0687
     19 C9          0.2400    1.5604   -1.1701 C.ar      1 <0>        -0.1288
     20 C10         0.3980    1.6940    0.2040 C.ar      1 <0>        -0.1104
     21 C11         0.7600    2.9137    0.7406 C.ar      1 <0>        -0.0885
     22 C12         0.9650    4.0027   -0.0887 C.ar      1 <0>        -0.0165
     23 C13         0.8080    3.8728   -1.4577 C.ar      1 <0>        -0.0863
     24 C14         0.4522    2.6541   -2.0007 C.ar      1 <0>        -0.0653
     25 Cl1         1.4195    5.5347    0.5896 Cl        1 <0>        -0.0375
     26 H2         -1.6998    1.0391    1.2842 H         1 <0>         0.1022
     27 H3         -2.5134    0.5599   -0.2247 H         1 <0>         0.1130
     28 H4         -3.0392   -0.1324    1.3285 H         1 <0>         0.1199
     29 H5          2.4775   -0.9354   -1.4394 H         1 <0>         0.1255
     30 H6          2.9626   -1.8305    0.0206 H         1 <0>         0.1480
     31 H7          5.1609   -1.1812   -1.3966 H         1 <0>         0.4120
     32 H8          5.7092   -2.4475   -2.3552 H         1 <0>         0.4181
     33 H9          0.8357   -1.8270   -2.8409 H         1 <0>         0.4203
     34 H10         1.5719   -3.2798   -3.0910 H         1 <0>         0.4475
     35 H11         0.2374    0.8448    0.8516 H         1 <0>         0.1281
     36 H12         0.8828    3.0182    1.8084 H         1 <0>         0.1468
     37 H13         0.9680    4.7245   -2.1022 H         1 <0>         0.1524
     38 H14         0.3342    2.5522   -3.0693 H         1 <0>         0.1470
     39 H15         0.0155   -3.2267   -2.5526 H         1 <0>         0.4383
@<TRIPOS>BOND
     1    1    2 1
     2    1   26 1
     3    1   27 1
     4    1   28 1
     5    2    6 1
     6    2    3 1
     7    3    4 2
     8    3   18 1
     9    4    5 1
    10    4   11 1
    11    5    6 2
    12    5    7 1
    13    7    8 1
    14    7    9 1
    15    7   10 1
    16   11   12 1
    17   11   13 1
    18   11   17 1
    19   13   14 1
    20   13   29 1
    21   13   30 1
    22   14   15 2
    23   14   16 am
    24   16   31 1
    25   16   32 1
    26   17   33 1
    27   17   34 1
    28   17   39 1
    29   18   19 1
    30   19   24 ar
    31   19   20 ar
    32   20   21 ar
    33   20   35 1
    34   21   22 ar
    35   21   36 1
    36   22   23 ar
    37   22   25 1
    38   23   24 ar
    39   23   37 1
    40   24   38 1
@<TRIPOS>MOLECULE
ZINC58131069
   62    62     0     0     0
SMALL
USER_CHARGES

@<TRIPOS>ATOM
      1 C1         -0.0187    1.5258    0.0104 C.3       1 <0>        -0.1542
      2 C2          0.0021   -0.0041    0.0020 C.3       1 <0>        -0.1381
      3 C3         -1.4333   -0.5336    0.0129 C.3       1 <0>         0.1120
      4 N1         -1.4134   -1.9985    0.0048 N.am      1 <0>        -0.7021
      5 C4         -2.5713   -2.6882    0.0122 C.2       1 <0>         0.4989
      6 O1         -3.6297   -2.0961    0.0255 O.2       1 <0>        -0.5281
      7 C5         -2.5509   -4.1950    0.0039 C.3       1 <0>        -0.0320
      8 N2         -3.9291   -4.7035    0.0143 N.4       1 <0>        -0.3707
      9 C6         -4.6039   -4.3091   -1.2281 C.3       1 <0>        -0.0132
     10 C7         -6.0637   -4.7662   -1.1873 C.3       1 <0>        -0.1512
     11 C8         -6.1118   -6.2898   -1.0399 C.3       1 <0>         0.1328
     12 C9         -5.3412   -6.6955    0.2198 C.3       1 <0>        -0.1604
     13 C10        -3.9083   -6.1668    0.1269 C.3       1 <0>        -0.0025
     14 N3         -7.5053   -6.7269   -0.9238 N.am      1 <0>        -0.7299
     15 C11        -7.8507   -7.9793   -1.2825 C.2       1 <0>         0.5266
     16 O2         -7.0080   -8.7444   -1.7013 O.2       1 <0>        -0.5099
     17 C12        -9.2841   -8.4290   -1.1631 C.3       1 <0>         0.1849
     18 C13       -10.0549   -8.0142   -2.4179 C.3       1 <0>        -0.1638
     19 C14        -9.3305   -9.9512   -1.0158 C.3       1 <0>        -0.1551
     20 N4         -9.8951   -7.8057    0.0136 N.am      1 <0>        -0.7469
     21 C15       -11.1815   -8.0640    0.3215 C.2       1 <0>         0.7078
     22 O3        -11.8350   -8.8143   -0.3773 O.2       1 <0>        -0.5708
     23 N5        -11.7436   -7.4906    1.4040 N.am      1 <0>        -0.7438
     24 C16       -13.1419   -7.7713    1.7386 C.3       1 <0>         0.1339
     25 C17       -13.5284   -7.0009    3.0027 C.3       1 <0>        -0.1347
     26 C18       -14.9888   -7.2941    3.3522 C.3       1 <0>        -0.1524
     27 H1          1.0039    1.9031    0.0027 H         1 <0>         0.0679
     28 H2         -0.5459    1.8868   -0.8726 H         1 <0>         0.0610
     29 H3         -0.5289    1.8773    0.9072 H         1 <0>         0.0610
     30 H4          0.5123   -0.3556   -0.8948 H         1 <0>         0.0731
     31 H5          0.5293   -0.3651    0.8851 H         1 <0>         0.0731
     32 H6         -1.9435   -0.1821    0.9097 H         1 <0>         0.0803
     33 H7         -1.9605   -0.1726   -0.8702 H         1 <0>         0.0803
     34 H8         -0.5669   -2.4720   -0.0058 H         1 <0>         0.4117
     35 H9         -2.0407   -4.5465   -0.8929 H         1 <0>         0.1608
     36 H10        -2.0237   -4.5561    0.8869 H         1 <0>         0.1618
     37 H11        -4.5660   -3.2248   -1.3332 H         1 <0>         0.1532
     38 H12        -4.1019   -4.7733   -2.0769 H         1 <0>         0.1300
     39 H13        -6.5668   -4.3024   -0.3389 H         1 <0>         0.0959
     40 H14        -6.5625   -4.4740   -2.1114 H         1 <0>         0.1206
     41 H15        -5.6541   -6.7551   -1.9128 H         1 <0>         0.1082
     42 H16        -5.8294   -6.2716    1.0974 H         1 <0>         0.0924
     43 H17        -5.3237   -7.7823    0.3015 H         1 <0>         0.1204
     44 H18        -3.4210   -6.5915   -0.7508 H         1 <0>         0.1355
     45 H19        -3.3568   -6.4541    1.0221 H         1 <0>         0.1373
     46 H20        -8.1792   -6.1150   -0.5888 H         1 <0>         0.4057
     47 H21        -9.6004   -8.4779   -3.2934 H         1 <0>         0.0740
     48 H22       -11.0917   -8.3395   -2.3316 H         1 <0>         0.1000
     49 H23       -10.0219   -6.9298   -2.5228 H         1 <0>         0.0584
     50 H24        -8.7814  -10.2466   -0.1218 H         1 <0>         0.0577
     51 H25       -10.3673  -10.2764   -0.9295 H         1 <0>         0.0937
     52 H26        -8.8760  -10.4149   -1.8913 H         1 <0>         0.0777
     53 H27        -9.3737   -7.2072    0.5711 H         1 <0>         0.3899
     54 H28       -11.2222   -6.8920    1.9615 H         1 <0>         0.3943
     55 H29       -13.7825   -7.4603    0.9134 H         1 <0>         0.0699
     56 H30       -13.2664   -8.8402    1.9123 H         1 <0>         0.0699
     57 H31       -12.8878   -7.3119    3.8279 H         1 <0>         0.0679
     58 H32       -13.4039   -5.9320    2.8291 H         1 <0>         0.0677
     59 H33       -15.2641   -6.7451    4.2528 H         1 <0>         0.0625
     60 H34       -15.6294   -6.9830    2.5270 H         1 <0>         0.0599
     61 H35       -15.1133   -8.3629    3.5259 H         1 <0>         0.0600
     62 H36        -4.4244   -4.3136    0.8022 H         1 <0>         0.4295
@<TRIPOS>BOND
     1    1    2 1
     2    1   27 1
     3    1   28 1
     4    1   29 1
     5    2    3 1
     6    2   30 1
     7    2   31 1
     8    3    4 1
     9    3   32 1
    10    3   33 1
    11    4    5 am
    12    4   34 1
    13    5    6 2
    14    5    7 1
    15    7    8 1
    16    7   35 1
    17    7   36 1
    18    8   13 1
    19    8    9 1
    20    8   62 1
    21    9   10 1
    22    9   37 1
    23    9   38 1
    24   10   11 1
    25   10   39 1
    26   10   40 1
    27   11   12 1
    28   11   14 1
    29   11   41 1
    30   12   13 1
    31   12   42 1
    32   12   43 1
    33   13   44 1
    34   13   45 1
    35   14   15 am
    36   14   46 1
    37   15   16 2
    38   15   17 1
    39   17   18 1
    40   17   19 1
    41   17   20 1
    42   18   47 1
    43   18   48 1
    44   18   49 1
    45   19   50 1
    46   19   51 1
    47   19   52 1
    48   20   21 am
    49   20   53 1
    50   21   22 2
    51   21   23 am
    52   23   24 1
    53   23   54 1
    54   24   25 1
    55   24   55 1
    56   24   56 1
    57   25   26 1
    58   25   57 1
    59   25   58 1
    60   26   59 1
    61   26   60 1
    62   26   61 1
@<TRIPOS>MOLECULE
ZINC07524739
   42    44     0     0     0
SMALL
USER_CHARGES
4-amino-N-[2-[[5-(3,5-dichlorophenyl)-2-furyl]methylamino]ethyl]-1,2,5-oxadiazole-3-carboxamide
@<TRIPOS>ATOM
      1 C1          3.5395    4.2448   -1.1037 C.2       1 <0>        -0.1247
      2 C2          4.8085    4.6710   -0.6632 C.2       1 <0>        -0.1952
      3 C3          4.7790    4.6493    0.6958 C.2       1 <0>         0.0935
      4 O1          3.5561    4.2378    1.0821 O.3       1 <0>        -0.1599
      5 C4          2.8060    3.9868   -0.0033 C.2       1 <0>        -0.1147
      6 C5          1.3788    3.5031    0.0077 C.3       1 <0>         0.1003
      7 C6         -0.0187    1.5258    0.0104 C.3       1 <0>        -0.0184
      8 C7          0.0021   -0.0041    0.0020 C.3       1 <0>         0.0954
      9 N1         -1.3723   -0.5112    0.0124 N.am      1 <0>        -0.7178
     10 C8         -1.6006   -1.8394    0.0075 C.2       1 <0>         0.6290
     11 O2         -0.6664   -2.6164   -0.0056 O.2       1 <0>        -0.5066
     12 C9         -2.9902   -2.3521    0.0180 C.2       1 <0>        -0.1045
     13 C10        -3.4599   -3.7563    0.0149 C.2       1 <0>         0.3306
     14 N2         -4.7659   -3.6204    0.0286 N.2       1 <0>        -0.4038
     15 O3         -5.0484   -2.4455    0.0379 O.3       1 <0>         0.3606
     16 N3         -4.1176   -1.6746    0.0382 N.2       1 <0>        -0.3062
     17 N4         -2.7084   -4.9233    0.0015 N.pl3     1 <0>        -0.7981
     18 C11         5.8933    5.0192    1.5935 C.ar      1 <0>        -0.0193
     19 C12         7.1154    5.4317    1.0601 C.ar      1 <0>        -0.0756
     20 C13         8.1514    5.7797    1.9040 C.ar      1 <0>        -0.0207
     21 C14         7.9828    5.7113    3.2765 C.ar      1 <0>        -0.0807
     22 C15         6.7745    5.2982    3.8115 C.ar      1 <0>        -0.0228
     23 C16         5.7296    4.9518    2.9780 C.ar      1 <0>        -0.0829
     24 Cl1         6.5729    5.2150    5.5338 Cl        1 <0>        -0.0356
     25 Cl2         9.6704    6.2983    1.2427 Cl        1 <0>        -0.0311
     26 H1          3.2160    4.1444   -2.1292 H         1 <0>         0.1678
     27 H2          5.6432    4.9592   -1.2851 H         1 <0>         0.1682
     28 H3          0.8613    3.8779   -0.8754 H         1 <0>         0.1617
     29 H4          0.8783    3.8683    0.9045 H         1 <0>         0.1494
     30 H5         -0.5459    1.8868   -0.8726 H         1 <0>         0.1447
     31 H6         -0.5289    1.8773    0.9072 H         1 <0>         0.1439
     32 H7          0.5123   -0.3556   -0.8948 H         1 <0>         0.0973
     33 H8          0.5293   -0.3651    0.8851 H         1 <0>         0.0968
     34 H9         -2.1181    0.1091    0.0229 H         1 <0>         0.4174
     35 H10        -1.7396   -4.8762   -0.0076 H         1 <0>         0.4287
     36 H11        -3.1520   -5.7859    0.0011 H         1 <0>         0.4224
     37 H12         7.2493    5.4819   -0.0104 H         1 <0>         0.1502
     38 H13         8.7973    5.9808    3.9325 H         1 <0>         0.1558
     39 H14         4.7877    4.6291    3.3965 H         1 <0>         0.1462
     40 N5          1.3682    2.0280   -0.0001 N.4       1 <0>        -0.5181
     41 H15         1.8603    1.6814    0.8317 H         1 <0>         0.4388
     42 H16         1.8443    1.6904   -0.8449 H         1 <0>         0.4379
@<TRIPOS>BOND
     1    1    5 2
     2    1    2 1
     3    1   26 1
     4    2    3 2
     5    2   27 1
     6    3    4 1
     7    3   18 1
     8    4    5 1
     9    5    6 1
    10    6   28 1
    11    6   29 1
    12    6   40 1
    13    7    8 1
    14    7   30 1
    15    7   31 1
    16    7   40 1
    17    8    9 1
    18    8   32 1
    19    8   33 1
    20    9   10 am
    21    9   34 1
    22   10   11 2
    23   10   12 1
    24   12   16 2
    25   12   13 1
    26   13   14 2
    27   13   17 1
    28   14   15 1
    29   15   16 1
    30   17   35 1
    31   17   36 1
    32   18   23 ar
    33   18   19 ar
    34   19   20 ar
    35   19   37 1
    36   20   21 ar
    37   20   25 1
    38   21   22 ar
    39   21   38 1
    40   22   23 ar
    41   22   24 1
    42   23   39 1
    43   40   41 1
    44   40   42 1
@<TRIPOS>MOLECULE
ZINC19927175
   76    79     0     0     0
SMALL
USER_CHARGES
3-(4-amino-1,2,5-oxadiazol-3-yl)-N-[(3,5-ditert-butyl-4-hydroxy-phenyl)methyleneamino]-5-(1-piperidylmethyl)triazole-4-carboxamide
@<TRIPOS>ATOM
      1 C1        -10.0335    5.0192    0.4297 C.3       1 <0>        -0.1496
      2 C2        -10.1688    6.5218    0.1751 C.3       1 <0>        -0.0140
      3 C3        -10.9066    7.1732    1.3466 C.3       1 <0>        -0.1434
      4 C4        -10.9578    6.7514   -1.1155 C.3       1 <0>        -0.1444
      5 C5         -8.7983    7.1341    0.0417 C.ar      1 <0>        -0.1146
      6 C6         -7.6768    6.3414    0.1542 C.ar      1 <0>        -0.0465
      7 C7         -6.4064    6.9104    0.0303 C.ar      1 <0>        -0.1202
      8 C8         -6.2796    8.2826   -0.2016 C.ar      1 <0>        -0.0338
      9 C9         -7.4069    9.0666   -0.3179 C.ar      1 <0>        -0.1739
     10 C10        -8.6675    8.4967   -0.1940 C.ar      1 <0>         0.2072
     11 O1         -9.7760    9.2745   -0.3033 O.3       1 <0>        -0.5020
     12 C11        -7.2717   10.5456   -0.5736 C.3       1 <0>        -0.0286
     13 C12        -5.7896   10.9135   -0.6676 C.3       1 <0>        -0.1424
     14 C13        -7.9699   10.9019   -1.8875 C.3       1 <0>        -0.1571
     15 C14        -7.9183   11.3229    0.5747 C.3       1 <0>        -0.1556
     16 C15        -5.2036    6.0666    0.1498 C.2       1 <0>         0.1586
     17 N1         -4.0244    6.5971    0.0343 N.2       1 <0>        -0.2461
     18 N2         -2.8813    5.7952    0.1479 N.am      1 <0>        -0.5692
     19 C16        -1.6571    6.3460    0.0281 C.2       1 <0>         0.5997
     20 O2         -1.5409    7.5519   -0.0845 O.2       1 <0>        -0.4670
     21 C17        -0.4613    5.4892    0.0333 C.2       1 <0>         0.0125
     22 C18         0.3083    5.1466    1.1146 C.2       1 <0>        -0.0321
     23 N3          1.2835    4.3651    0.6494 N.2       1 <0>        -0.1981
     24 N4          1.1455    4.2162   -0.6195 N.2       1 <0>        -0.0202
     25 N5          0.1166    4.8629   -1.0437 N.pl3     1 <0>        -0.1939
     26 C19        -0.3301    4.9222   -2.3674 C.2       1 <0>         0.2489
     27 C20         0.3558    4.3520   -3.5306 C.2       1 <0>         0.3680
     28 N6         -0.3614    4.6001   -4.5919 N.2       1 <0>        -0.3276
     29 O3         -1.5071    5.3254   -4.1816 O.3       1 <0>         0.0785
     30 N7         -1.4250    5.4974   -2.7778 N.2       1 <0>        -0.2322
     31 N8          1.5614    3.6600   -3.5063 N.pl3     1 <0>        -0.8262
     32 C21         0.0979    5.5736    2.5444 C.3       1 <0>         0.0899
     33 N9          0.8209    6.8281    2.7922 N.4       1 <0>        -0.4020
     34 C22         2.2722    6.6278    2.6919 C.3       1 <0>        -0.0073
     35 C23         2.9842    7.9772    2.8106 C.3       1 <0>        -0.1465
     36 C24         2.6305    8.6189    4.1551 C.3       1 <0>        -0.1396
     37 C25         1.1102    8.7720    4.2544 C.3       1 <0>        -0.1472
     38 C26         0.4525    7.3996    4.0938 C.3       1 <0>        -0.0035
     39 H1         -9.5031    4.5509   -0.4125 H         1 <0>         0.0578
     40 H2        -11.0339    4.5723    0.5271 H         1 <0>         0.0623
     41 H3         -9.4663    4.8542    1.3576 H         1 <0>         0.0570
     42 H4        -11.0039    8.2535    1.1635 H         1 <0>         0.0718
     43 H5        -10.3394    7.0081    2.2745 H         1 <0>         0.0499
     44 H6        -11.9070    6.7263    1.4440 H         1 <0>         0.0571
     45 H7        -11.0551    7.8317   -1.2985 H         1 <0>         0.0718
     46 H8        -11.9582    6.3045   -1.0181 H         1 <0>         0.0572
     47 H9        -10.4274    6.2831   -1.9577 H         1 <0>         0.0509
     48 H10        -7.7794    5.2822    0.3382 H         1 <0>         0.1374
     49 H11        -5.2997    8.7274   -0.2932 H         1 <0>         0.1395
     50 H12        -9.6744   10.3538   -0.4899 H         1 <0>         0.4266
     51 H13        -5.6909   11.9931   -0.8542 H         1 <0>         0.0627
     52 H14        -5.3248   10.3546   -1.4932 H         1 <0>         0.0616
     53 H15        -5.2876   10.6573    0.2770 H         1 <0>         0.0593
     54 H16        -7.8712   11.9815   -2.0741 H         1 <0>         0.0703
     55 H17        -9.0355   10.6374   -1.8199 H         1 <0>         0.0596
     56 H18        -7.5050   10.3430   -2.7130 H         1 <0>         0.0669
     57 H19        -7.8196   12.4024    0.3880 H         1 <0>         0.0701
     58 H20        -7.4163   11.0667    1.5193 H         1 <0>         0.0650
     59 H21        -8.9839   11.0584    0.6423 H         1 <0>         0.0596
     60 H22        -5.3053    4.9874    0.3368 H         1 <0>         0.1265
     61 H23        -2.9829    4.7160    0.3349 H         1 <0>         0.4053
     62 H24         1.9916    3.2716   -4.4412 H         1 <0>         0.4561
     63 H25         2.0851    3.5009   -2.5521 H         1 <0>         0.4514
     64 H26        -0.9759    5.7270    2.7270 H         1 <0>         0.1503
     65 H27         0.4767    4.7925    3.2199 H         1 <0>         0.1621
     66 H28         2.6076    5.9642    3.5026 H         1 <0>         0.1340
     67 H29         2.5130    6.1709    1.7207 H         1 <0>         0.1262
     68 H30         4.0719    7.8244    2.7501 H         1 <0>         0.1143
     69 H31         2.6603    8.6360    1.9914 H         1 <0>         0.0868
     70 H32         2.9916    7.9785    4.9733 H         1 <0>         0.0834
     71 H33         3.1069    9.6079    4.2260 H         1 <0>         0.0956
     72 H34         0.8475    9.1938    5.2358 H         1 <0>         0.1158
     73 H35         0.7567    9.4452    3.4595 H         1 <0>         0.0898
     74 H36        -0.6406    7.5085    4.1502 H         1 <0>         0.1326
     75 H37         0.7965    6.7323    4.8978 H         1 <0>         0.1324
     76 H38         0.5274    7.5485    2.0145 H         1 <0>         0.4443
@<TRIPOS>BOND
     1    1    2 1
     2    1   39 1
     3    1   40 1
     4    1   41 1
     5    2    3 1
     6    2    4 1
     7    2    5 1
     8    3   42 1
     9    3   43 1
    10    3   44 1
    11    4   45 1
    12    4   46 1
    13    4   47 1
    14    5   10 ar
    15    5    6 ar
    16    6    7 ar
    17    6   48 1
    18    7    8 ar
    19    7   16 1
    20    8    9 ar
    21    8   49 1
    22    9   10 ar
    23    9   12 1
    24   10   11 1
    25   11   50 1
    26   12   13 1
    27   12   14 1
    28   12   15 1
    29   13   51 1
    30   13   52 1
    31   13   53 1
    32   14   54 1
    33   14   55 1
    34   14   56 1
    35   15   57 1
    36   15   58 1
    37   15   59 1
    38   16   17 2
    39   16   60 1
    40   17   18 1
    41   18   19 am
    42   18   61 1
    43   19   20 2
    44   19   21 1
    45   21   25 1
    46   21   22 2
    47   22   23 1
    48   22   32 1
    49   23   24 2
    50   24   25 1
    51   25   26 1
    52   26   30 2
    53   26   27 1
    54   27   28 2
    55   27   31 1
    56   28   29 1
    57   29   30 1
    58   31   62 1
    59   31   63 1
    60   32   33 1
    61   32   64 1
    62   32   65 1
    63   33   38 1
    64   33   34 1
    65   33   76 1
    66   34   35 1
    67   34   66 1
    68   34   67 1
    69   35   36 1
    70   35   68 1
    71   35   69 1
    72   36   37 1
    73   36   70 1
    74   36   71 1
    75   37   38 1
    76   37   72 1
    77   37   73 1
    78   38   74 1
    79   38   75 1
@<TRIPOS>MOLECULE
ZINC03633116
   60    63     0     0     0
SMALL
USER_CHARGES

@<TRIPOS>ATOM
      1 C1          0.2879    1.5979    0.0772 C.3       1 <0>        -0.1528
      2 C2          0.2382    0.0702    0.0109 C.3       1 <0>        -0.1477
      3 C3          0.8173   -0.5154    1.3003 C.3       1 <0>        -0.0185
      4 N1          0.6538   -1.9753    1.2918 N.4       1 <0>        -0.3808
      5 C4          1.4773   -2.5540    0.2218 C.3       1 <0>        -0.0150
      6 C5          1.1985   -4.0548    0.1188 C.3       1 <0>        -0.1518
      7 C6          1.9553   -4.6331   -1.0787 C.3       1 <0>        -0.1530
      8 C7          1.0781   -2.5231    2.5870 C.3       1 <0>         0.0546
      9 C8          0.1557   -2.0250    3.6696 C.2       1 <0>         0.0745
     10 C9          0.3046   -0.8836    4.4052 C.2       1 <0>        -0.0358
     11 N2         -0.7246   -0.7941    5.2657 N.2       1 <0>        -0.1583
     12 N3         -1.5046   -1.8070    5.1127 N.2       1 <0>         0.0098
     13 N4         -0.9815   -2.6185    4.0959 N.pl3     1 <0>        -0.2877
     14 C10        -1.5296   -3.8136    3.6167 C.2       1 <0>         0.2868
     15 C11        -2.7684   -4.4390    4.0884 C.2       1 <0>         0.3586
     16 N5         -2.9578   -5.5370    3.4096 N.2       1 <0>        -0.3111
     17 O1         -1.8849   -5.6718    2.4943 O.3       1 <0>         0.0798
     18 N6         -1.0287   -4.5571    2.6712 N.2       1 <0>        -0.2871
     19 N7         -3.5992   -3.9468    5.0887 N.pl3     1 <0>        -0.7970
     20 C12         1.4083    0.0864    4.2776 C.2       1 <0>         0.6207
     21 O2          2.2899   -0.0994    3.4601 O.2       1 <0>        -0.5042
     22 N8          1.4402    1.1786    5.0666 N.am      1 <0>        -0.5562
     23 N9          2.4887    2.0999    4.9454 N.2       1 <0>        -0.2562
     24 C13         2.5194    3.1527    5.7059 C.2       1 <0>         0.1885
     25 C14         3.6208    4.1206    5.5786 C.2       1 <0>        -0.1705
     26 C15         3.7911    5.2588    6.3040 C.2       1 <0>         0.1231
     27 N10         4.9271    5.8952    5.9006 N.pl3     1 <0>        -0.5794
     28 H1          5.2577    6.7281    6.2720 H         1 <0>         0.4248
     29 C16         5.5390    5.1850    4.8897 C.ar      1 <0>         0.0860
     30 C17         4.7582    4.0430    4.6447 C.ar      1 <0>        -0.0755
     31 C18         5.1448    3.1300    3.6662 C.ar      1 <0>        -0.0670
     32 C19         6.2968    3.3513    2.9439 C.ar      1 <0>        -0.1396
     33 C20         7.0706    4.4769    3.1871 C.ar      1 <0>        -0.0967
     34 C21         6.6965    5.3925    4.1464 C.ar      1 <0>        -0.1247
     35 H2          1.3219    1.9232    0.1917 H         1 <0>         0.0720
     36 H3         -0.1246    2.0151   -0.8414 H         1 <0>         0.0782
     37 H4         -0.2982    1.9439    0.9287 H         1 <0>         0.0619
     38 H5         -0.7958   -0.2551   -0.1036 H         1 <0>         0.0795
     39 H6          0.8242   -0.2758   -0.8406 H         1 <0>         0.0916
     40 H7          1.8769   -0.2689    1.3675 H         1 <0>         0.1581
     41 H8          0.2915   -0.0959    2.1580 H         1 <0>         0.1139
     42 H9          1.2328   -2.0731   -0.7253 H         1 <0>         0.1406
     43 H10         2.5316   -2.3950    0.4485 H         1 <0>         0.1406
     44 H11         1.5304   -4.5495    1.0316 H         1 <0>         0.0872
     45 H12         0.1290   -4.2174   -0.0144 H         1 <0>         0.0870
     46 H13         1.6234   -4.1383   -1.9915 H         1 <0>         0.0668
     47 H14         3.0248   -4.4705   -0.9455 H         1 <0>         0.0683
     48 H15         1.7566   -5.7023   -1.1521 H         1 <0>         0.0786
     49 H16         1.0411   -3.6119    2.5507 H         1 <0>         0.1589
     50 H17         2.0972   -2.2011    2.8014 H         1 <0>         0.1863
     51 H18        -3.3757   -3.1181    5.5406 H         1 <0>         0.4291
     52 H19        -4.4023   -4.4320    5.3346 H         1 <0>         0.4310
     53 H20         0.7373    1.3268    5.7184 H         1 <0>         0.3950
     54 H21         1.7368    3.3177    6.4316 H         1 <0>         0.1265
     55 H22         3.1266    5.6059    7.0813 H         1 <0>         0.1841
     56 H23         4.5446    2.2527    3.4750 H         1 <0>         0.1334
     57 H24         6.5992    2.6450    2.1849 H         1 <0>         0.1237
     58 H25         7.9718    4.6402    2.6147 H         1 <0>         0.1284
     59 H26         7.3071    6.2644    4.3288 H         1 <0>         0.1238
     60 H27        -0.3157   -2.2042    1.1311 H         1 <0>         0.4149
@<TRIPOS>BOND
     1    1    2 1
     2    1   35 1
     3    1   36 1
     4    1   37 1
     5    2    3 1
     6    2   38 1
     7    2   39 1
     8    3    4 1
     9    3   40 1
    10    3   41 1
    11    4    5 1
    12    4    8 1
    13    4   60 1
    14    5    6 1
    15    5   42 1
    16    5   43 1
    17    6    7 1
    18    6   44 1
    19    6   45 1
    20    7   46 1
    21    7   47 1
    22    7   48 1
    23    8    9 1
    24    8   49 1
    25    8   50 1
    26    9   13 1
    27    9   10 2
    28   10   11 1
    29   10   20 1
    30   11   12 2
    31   12   13 1
    32   13   14 1
    33   14   18 2
    34   14   15 1
    35   15   16 2
    36   15   19 1
    37   16   17 1
    38   17   18 1
    39   19   51 1
    40   19   52 1
    41   20   21 2
    42   20   22 am
    43   22   23 1
    44   22   53 1
    45   23   24 2
    46   24   25 1
    47   24   54 1
    48   25   30 1
    49   25   26 2
    50   26   27 1
    51   26   55 1
    52   27   28 1
    53   27   29 1
    54   29   34 ar
    55   29   30 ar
    56   30   31 ar
    57   31   32 ar
    58   31   56 1
    59   32   33 ar
    60   32   57 1
    61   33   34 ar
    62   33   58 1
    63   34   59 1
@<TRIPOS>MOLECULE
ZINC43553537
   75    78     0     0     0
SMALL
USER_CHARGES

@<TRIPOS>ATOM
      1 C1          0.1161    1.5059   -0.0193 C.3       1 <0>        -0.1624
      2 C2          0.1170   -0.0304   -0.0096 C.3       1 <0>        -0.0361
      3 C3         -1.3252   -0.5177    0.0663 C.3       1 <0>        -0.1023
      4 C4         -1.9769    0.0392    1.3328 C.3       1 <0>        -0.1506
      5 C5         -1.2319   -0.3833    2.5854 C.3       1 <0>         0.1260
      6 H1         -1.6153    0.2287    3.4260 H         1 <0>         0.0536
      7 C6          0.2743   -0.1921    2.5289 C.3       1 <0>        -0.0345
      8 C7          0.8907   -0.5772    1.1849 C.3       1 <0>        -0.0439
      9 H2          1.9280   -0.1983    1.1433 H         1 <0>         0.0790
     10 C8          0.9351   -2.1176    1.1383 C.3       1 <0>        -0.0404
     11 C9          1.0322   -2.6293   -0.2532 C.2       1 <0>        -0.2425
     12 C10         0.9457   -1.9236   -1.4076 C.2       1 <0>         0.0902
     13 N1          1.0409   -2.6421   -2.5199 N.2       1 <0>        -0.5216
     14 C11         1.2285   -3.9437   -2.4881 C.2       1 <0>         0.2302
     15 S1          1.2864   -4.2828   -0.8382 S.3       1 <0>         0.2170
     16 N2          1.3502   -4.8246   -3.5563 N.am      1 <0>        -0.6112
     17 C12         1.5406   -6.1391   -3.3274 C.2       1 <0>         0.5201
     18 O1          1.6056   -6.5533   -2.1894 O.2       1 <0>        -0.4934
     19 C13         1.6726   -7.0942   -4.4856 C.3       1 <0>        -0.1314
     20 C14         0.3232   -7.5439   -5.0701 C.3       1 <0>        -0.1234
     21 C15         0.9382   -8.9470   -5.2044 C.3       1 <0>        -0.1416
     22 C16         1.8851   -8.5558   -4.0575 C.3       1 <0>        -0.1181
     23 C17         0.7827   -0.4195   -1.3326 C.3       1 <0>         0.0206
     24 H3          1.7767    0.0466   -1.3617 H         1 <0>         0.0905
     25 C18        -0.0303    0.0911   -2.5184 C.3       1 <0>        -0.1295
     26 C19         0.7109   -0.1995   -3.7980 C.2       1 <0>         0.5228
     27 O2          1.7854   -0.7607   -3.7623 O.2       1 <0>        -0.4848
     28 N3          0.1797    0.1644   -4.9820 N.am      1 <0>        -0.7444
     29 C20         0.9002   -0.1180   -6.2259 C.3       1 <0>         0.1005
     30 C21         0.0849    0.3939   -7.4150 C.3       1 <0>        -0.0231
     31 N4          0.8074    0.1107   -8.6623 N.4       1 <0>        -0.3832
     32 C22         0.9031   -1.3426   -8.8536 C.3       1 <0>        -0.0549
     33 C23         0.0841    0.7069   -9.7934 C.3       1 <0>        -0.0467
     34 C24         0.6443    1.2376    2.9447 C.3       1 <0>        -0.1487
     35 C25         0.8879   -1.1050    3.6237 C.3       1 <0>         0.0805
     36 O3          0.3778   -0.7235    4.9029 O.3       1 <0>        -0.5687
     37 O4         -1.5450   -1.7454    2.8987 O.3       1 <0>        -0.5635
     38 H4          1.1411    1.8703    0.0484 H         1 <0>         0.0601
     39 H5         -0.3362    1.8631   -0.9445 H         1 <0>         0.0596
     40 H6         -0.4574    1.8743    0.8313 H         1 <0>         0.0736
     41 H7         -1.8978   -0.1749   -0.7954 H         1 <0>         0.0608
     42 H8         -1.3457   -1.6083    0.0964 H         1 <0>         0.0712
     43 H9         -2.0642    1.1219    1.2833 H         1 <0>         0.0751
     44 H10        -3.0041   -0.3597    1.3868 H         1 <0>         0.0628
     45 H11         1.8180   -2.4729    1.6827 H         1 <0>         0.0752
     46 H12         0.0376   -2.5363    1.5936 H         1 <0>         0.1070
     47 H13         1.2982   -4.4933   -4.4665 H         1 <0>         0.4166
     48 H14         2.3834   -6.7517   -5.2377 H         1 <0>         0.1197
     49 H15        -0.4998   -7.4943   -4.3571 H         1 <0>         0.0877
     50 H16         0.0847   -7.0784   -6.0264 H         1 <0>         0.0764
     51 H17         0.2498   -9.7519   -4.9469 H         1 <0>         0.0789
     52 H18         1.4473   -9.1115   -6.1540 H         1 <0>         0.0870
     53 H19         2.9075   -8.9073   -4.1963 H         1 <0>         0.0788
     54 H20         1.4892   -8.7829   -3.0677 H         1 <0>         0.0994
     55 H21        -0.9984   -0.4095   -2.5376 H         1 <0>         0.0972
     56 H22        -0.1791    1.1664   -2.4209 H         1 <0>         0.1034
     57 H23        -0.6797    0.6133   -5.0105 H         1 <0>         0.4031
     58 H24         1.8683    0.3825   -6.2067 H         1 <0>         0.0839
     59 H25         1.0491   -1.1934   -6.3234 H         1 <0>         0.0845
     60 H26        -0.8832   -0.1066   -7.4342 H         1 <0>         0.1356
     61 H27        -0.0639    1.4693   -7.3175 H         1 <0>         0.1373
     62 H28         1.4392   -1.5527   -9.7791 H         1 <0>         0.1279
     63 H29         1.4398   -1.7850   -8.0144 H         1 <0>         0.1254
     64 H30        -0.0987   -1.7685   -8.9093 H         1 <0>         0.1240
     65 H31         0.0131    1.7853   -9.6515 H         1 <0>         0.1249
     66 H32         0.6202    0.4968  -10.7189 H         1 <0>         0.1276
     67 H33        -0.9177    0.2810   -9.8491 H         1 <0>         0.1232
     68 H34         0.4249    1.3764    4.0033 H         1 <0>         0.0740
     69 H35         1.7072    1.4034    2.7692 H         1 <0>         0.0596
     70 H36         0.0637    1.9486    2.3570 H         1 <0>         0.0612
     71 H37         0.6232   -2.1429    3.4217 H         1 <0>         0.0625
     72 H38         1.9728   -0.9992    3.6189 H         1 <0>         0.0388
     73 H39         0.7193   -1.2531    5.6364 H         1 <0>         0.3798
     74 H40        -2.4847   -1.9056    3.0610 H         1 <0>         0.3759
     75 H41         1.7348    0.5050   -8.6108 H         1 <0>         0.4299
@<TRIPOS>BOND
     1    1    2 1
     2    1   38 1
     3    1   39 1
     4    1   40 1
     5    2    8 1
     6    2   23 1
     7    2    3 1
     8    3    4 1
     9    3   41 1
    10    3   42 1
    11    4    5 1
    12    4   43 1
    13    4   44 1
    14    5    6 1
    15    5    7 1
    16    5   37 1
    17    7    8 1
    18    7   34 1
    19    7   35 1
    20    8    9 1
    21    8   10 1
    22   10   11 1
    23   10   45 1
    24   10   46 1
    25   11   15 1
    26   11   12 2
    27   12   13 1
    28   12   23 1
    29   13   14 2
    30   14   15 1
    31   14   16 1
    32   16   17 am
    33   16   47 1
    34   17   18 2
    35   17   19 1
    36   19   22 1
    37   19   20 1
    38   19   48 1
    39   20   21 1
    40   20   49 1
    41   20   50 1
    42   21   22 1
    43   21   51 1
    44   21   52 1
    45   22   53 1
    46   22   54 1
    47   23   24 1
    48   23   25 1
    49   25   26 1
    50   25   55 1
    51   25   56 1
    52   26   27 2
    53   26   28 am
    54   28   29 1
    55   28   57 1
    56   29   30 1
    57   29   58 1
    58   29   59 1
    59   30   31 1
    60   30   60 1
    61   30   61 1
    62   31   32 1
    63   31   33 1
    64   31   75 1
    65   32   62 1
    66   32   63 1
    67   32   64 1
    68   33   65 1
    69   33   66 1
    70   33   67 1
    71   34   68 1
    72   34   69 1
    73   34   70 1
    74   35   36 1
    75   35   71 1
    76   35   72 1
    77   36   73 1
    78   37   74 1
@<TRIPOS>MOLECULE
ZINC13634079
   48    51     0     0     0
SMALL
USER_CHARGES

@<TRIPOS>ATOM
      1 C1          0.3170    1.4727    2.3643 C.3       1 <0>        -0.1349
      2 C2          0.2780   -0.0338    2.3596 C.ar      1 <0>        -0.0479
      3 C3          1.0757   -0.7420    1.4795 C.ar      1 <0>        -0.0742
      4 C4          1.0424   -2.1225    1.4726 C.ar      1 <0>        -0.1502
      5 C5          0.2066   -2.8006    2.3508 C.ar      1 <0>         0.0859
      6 C6         -0.5935   -2.0877    3.2336 C.ar      1 <0>        -0.0877
      7 C7         -0.5517   -0.7058    3.2399 C.ar      1 <0>        -0.0160
      8 Cl1        -1.5461    0.1871    4.3478 Cl        1 <0>        -0.0276
      9 N1          0.1707   -4.1988    2.3454 N.pl3     1 <0>        -0.5898
     10 C8          0.0237   -4.8788    1.1580 C.cat     1 <0>         0.7476
     11 N2          0.0296   -4.2281    0.0299 N.pl3     1 <0>        -0.7571
     12 N3         -0.1300   -6.2503    1.1626 N.pl3     1 <0>        -0.6230
     13 C9         -0.0112   -6.9508    2.3384 C.2       1 <0>         0.6308
     14 N4         -0.0016   -8.3105    2.3079 N.am      1 <0>        -0.6231
     15 C10         0.1149   -9.0062    3.4592 C.2       1 <0>         0.5408
     16 O1          0.1256  -10.2261    3.4502 O.2       1 <0>        -0.4781
     17 C11         0.2241   -8.2971    4.6691 C.2       1 <0>        -0.2290
     18 C12         0.2085   -6.9332    4.6373 C.2       1 <0>         0.2028
     19 N5          0.0969   -6.2937    3.4749 N.2       1 <0>        -0.5748
     20 C13         0.3234   -6.1494    5.9192 C.3       1 <0>        -0.0811
     21 S1          1.9887   -5.4417    6.0481 S.3       1 <0>         0.0580
     22 C14         1.9634   -4.5680    7.5780 C.2       1 <0>         0.0970
     23 N6          0.9811   -4.4490    8.4433 N.2       1 <0>        -0.4926
     24 C15         1.1045   -3.7411    9.5872 C.ar      1 <0>         0.0735
     25 C16         0.1341   -3.5349   10.5948 C.ar      1 <0>        -0.0561
     26 C17         0.4242   -2.7824   11.7031 C.ar      1 <0>        -0.1077
     27 C18         1.6707   -2.1989   11.8769 C.ar      1 <0>        -0.0817
     28 C19         2.6439   -2.3800   10.9109 C.ar      1 <0>        -0.0683
     29 C20         2.3624   -3.1322    9.7983 C.ar      1 <0>        -0.1393
     30 S2          3.2692   -3.6246    8.3519 S.3       1 <0>         0.0621
     31 H1          1.0823    1.8142    3.0613 H         1 <0>         0.0906
     32 H2          0.5510    1.8332    1.3626 H         1 <0>         0.0834
     33 H3         -0.6540    1.8603    2.6723 H         1 <0>         0.0833
     34 H4          1.7252   -0.2147    0.7965 H         1 <0>         0.1546
     35 H5          1.6655   -2.6746    0.7846 H         1 <0>         0.1418
     36 H6         -1.2446   -2.6120    3.9174 H         1 <0>         0.1498
     37 H7          0.2494   -4.6892    3.1786 H         1 <0>         0.4535
     38 H8         -0.1375   -4.6981   -0.8020 H         1 <0>         0.4436
     39 H9          0.3183   -8.8235    5.6075 H         1 <0>         0.1827
     40 H10        -0.4137   -5.3464    5.9215 H         1 <0>         0.1270
     41 H11         0.1430   -6.8105    6.7668 H         1 <0>         0.1349
     42 H12        -0.8466   -3.9748   10.4897 H         1 <0>         0.1350
     43 H13        -0.3350   -2.6403   12.4580 H         1 <0>         0.1400
     44 H14         1.8789   -1.6090   12.7572 H         1 <0>         0.1450
     45 H15         3.6191   -1.9320   11.0314 H         1 <0>         0.1386
     46 H16         0.2011   -3.2734    0.0216 H         1 <0>         0.4498
     47 H17        -0.3220   -6.7196    0.3357 H         1 <0>         0.4585
     48 H18        -0.0785   -8.7788    1.4619 H         1 <0>         0.4300
@<TRIPOS>BOND
     1    1    2 1
     2    1   31 1
     3    1   32 1
     4    1   33 1
     5    2    7 ar
     6    2    3 ar
     7    3    4 ar
     8    3   34 1
     9    4    5 ar
    10    4   35 1
    11    5    6 ar
    12    5    9 1
    13    6    7 ar
    14    6   36 1
    15    7    8 1
    16    9   10 1
    17    9   37 1
    18   10   11 2
    19   10   12 1
    20   11   38 1
    21   11   46 1
    22   12   13 1
    23   12   47 1
    24   13   19 2
    25   13   14 1
    26   14   15 am
    27   14   48 1
    28   15   16 2
    29   15   17 1
    30   17   18 2
    31   17   39 1
    32   18   19 1
    33   18   20 1
    34   20   21 1
    35   20   40 1
    36   20   41 1
    37   21   22 1
    38   22   30 1
    39   22   23 2
    40   23   24 1
    41   24   29 ar
    42   24   25 ar
    43   25   26 ar
    44   25   42 1
    45   26   27 ar
    46   26   43 1
    47   27   28 ar
    48   27   44 1
    49   28   29 ar
    50   28   45 1
    51   29   30 1
@<TRIPOS>MOLECULE
ZINC10032673
   38    39     0     0     0
SMALL
USER_CHARGES
1-[(3-carbamoyl-2-thienyl)carbamoyl]ethyl 2-amino-4-fluoro-benzoate
@<TRIPOS>ATOM
      1 C1         -2.5556    0.0992    1.2825 C.3       1 <0>        -0.1706
      2 C2         -2.4601    0.8750   -0.0327 C.3       1 <0>         0.0812
      3 H1         -2.4876    0.1767   -0.8692 H         1 <0>         0.1221
      4 C3         -1.1674    1.6489   -0.0667 C.2       1 <0>         0.5097
      5 O1         -1.1865    2.8615   -0.0748 O.2       1 <0>        -0.4736
      6 N1          0.0101    0.9934   -0.0881 N.am      1 <0>        -0.6061
      7 C4          1.1994    1.7053   -0.1252 C.2       1 <0>         0.1168
      8 C5          2.4993    1.2141   -0.1510 C.2       1 <0>        -0.2603
      9 C6          3.5616    2.1905   -0.1925 C.2       1 <0>        -0.1071
     10 C7          3.2041    3.4874   -0.1916 C.2       1 <0>        -0.2347
     11 S1          1.4252    3.4220   -0.1429 S.3       1 <0>         0.2325
     12 C8          2.7778   -0.2254   -0.1406 C.2       1 <0>         0.5906
     13 O2          1.8588   -1.0228   -0.1087 O.2       1 <0>        -0.5645
     14 N2          4.0513   -0.6656   -0.1664 N.am      1 <0>        -0.8472
     15 O3         -3.5782    1.7958   -0.1338 O.3       1 <0>        -0.3197
     16 C9         -4.6988    1.3351   -0.7243 C.2       1 <0>         0.5304
     17 O4         -4.7403    0.1949   -1.1431 O.2       1 <0>        -0.5206
     18 C10        -5.8722    2.2127   -0.8617 C.ar      1 <0>        -0.2365
     19 C11        -5.8740    3.4818   -0.2738 C.ar      1 <0>         0.0235
     20 C12        -6.9736    4.2985   -0.4058 C.ar      1 <0>        -0.2300
     21 C13        -8.0843    3.8694   -1.1216 C.ar      1 <0>         0.1937
     22 C14        -8.0972    2.6177   -1.7084 C.ar      1 <0>        -0.2561
     23 C15        -6.9944    1.7828   -1.5892 C.ar      1 <0>         0.3169
     24 N3         -7.0024    0.5275   -2.1823 N.pl3     1 <0>        -0.8464
     25 F1         -9.1582    4.6798   -1.2446 F         1 <0>        -0.1289
     26 H2         -3.4906   -0.4605    1.3071 H         1 <0>         0.0848
     27 H3         -1.7162   -0.5920    1.3585 H         1 <0>         0.0866
     28 H4         -2.5280    0.7975    2.1191 H         1 <0>         0.0793
     29 H5          0.0254    0.0235   -0.0816 H         1 <0>         0.4356
     30 H6          4.5994    1.8926   -0.2183 H         1 <0>         0.1415
     31 H7          3.8423    4.3584   -0.2153 H         1 <0>         0.1913
     32 H8          4.7837   -0.0301   -0.1918 H         1 <0>         0.4023
     33 H9          4.2356   -1.6179   -0.1596 H         1 <0>         0.4055
     34 H10        -5.0129    3.8207    0.2832 H         1 <0>         0.1501
     35 H11        -6.9730    5.2781    0.0489 H         1 <0>         0.1435
     36 H12        -8.9641    2.2908   -2.2633 H         1 <0>         0.1446
     37 H13        -6.2668   -0.0860   -2.0291 H         1 <0>         0.4192
     38 H14        -7.7436    0.2639   -2.7498 H         1 <0>         0.4009
@<TRIPOS>BOND
     1    1    2 1
     2    1   26 1
     3    1   27 1
     4    1   28 1
     5    2    3 1
     6    2    4 1
     7    2   15 1
     8    4    5 2
     9    4    6 am
    10    6    7 1
    11    6   29 1
    12    7   11 1
    13    7    8 2
    14    8    9 1
    15    8   12 1
    16    9   10 2
    17    9   30 1
    18   10   11 1
    19   10   31 1
    20   12   13 2
    21   12   14 am
    22   14   32 1
    23   14   33 1
    24   15   16 1
    25   16   17 2
    26   16   18 1
    27   18   23 ar
    28   18   19 ar
    29   19   20 ar
    30   19   34 1
    31   20   21 ar
    32   20   35 1
    33   21   22 ar
    34   21   25 1
    35   22   23 ar
    36   22   36 1
    37   23   24 1
    38   24   37 1
    39   24   38 1
@<TRIPOS>MOLECULE
ZINC25395637
   41    42     0     0     0
SMALL
USER_CHARGES
[(1R)-1-methyl-2-[N'-(4-methyl-2-phenyl-thiazole-5-carbonyl)hydrazino]-2-oxo-ethyl]urea
@<TRIPOS>ATOM
      1 C1         -6.3866   10.1806    1.8427 C.3       1 <0>        -0.1102
      2 C2         -4.9414   10.3480    2.2358 C.2       1 <0>         0.1726
      3 C3         -4.0176    9.3327    2.0228 C.2       1 <0>        -0.2804
      4 S1         -2.5379   10.0933    2.6758 S.3       1 <0>         0.1080
      5 C4         -3.2470   11.6100    3.1366 C.2       1 <0>         0.1603
      6 N1         -4.5162   11.4520    2.7873 N.2       1 <0>        -0.5133
      7 C5         -2.5996   12.7804    3.7652 C.ar      1 <0>        -0.0343
      8 C6         -3.3486   13.9203    4.0624 C.ar      1 <0>        -0.0616
      9 C7         -2.7391   15.0076    4.6536 C.ar      1 <0>        -0.1216
     10 C8         -1.3863   14.9741    4.9419 C.ar      1 <0>        -0.0913
     11 C9         -0.6371   13.8493    4.6456 C.ar      1 <0>        -0.1186
     12 C10        -1.2353   12.7531    4.0592 C.ar      1 <0>        -0.0873
     13 C11        -4.2054    8.0042    1.4324 C.2       1 <0>         0.6213
     14 O1         -5.3067    7.6608    1.0448 O.2       1 <0>        -0.5232
     15 N2         -3.1584    7.1631    1.3188 N.am      1 <0>        -0.5274
     16 N3         -3.3380    5.8934    0.7545 N.am      1 <0>        -0.5231
     17 C12        -2.2910    5.0523    0.6409 C.2       1 <0>         0.5168
     18 O2         -1.1935    5.3946    1.0271 O.2       1 <0>        -0.5411
     19 C13        -2.4841    3.6866    0.0339 C.3       1 <0>         0.1619
     20 H1         -3.1861    3.1024    0.6469 H         1 <0>         0.1204
     21 C14        -2.9974    3.8336   -1.3999 C.3       1 <0>        -0.1637
     22 N4         -1.2056    2.9714    0.0239 N.am      1 <0>        -0.7459
     23 C15        -1.1873    1.6238    0.0165 C.2       1 <0>         0.7130
     24 O3         -2.2319    1.0016    0.0181 O.2       1 <0>        -0.6035
     25 N5         -0.0111    0.9658    0.0074 N.am      1 <0>        -0.8893
     26 H2         -6.5328    9.1849    1.3985 H         1 <0>         0.1096
     27 H3         -6.6587   10.9532    1.1085 H         1 <0>         0.0821
     28 H4         -7.0231   10.2815    2.7342 H         1 <0>         0.0822
     29 H5         -4.4037   13.9493    3.8337 H         1 <0>         0.1382
     30 H6         -3.3183   15.8885    4.8878 H         1 <0>         0.1340
     31 H7         -0.9131   15.8297    5.4007 H         1 <0>         0.1315
     32 H8          0.4184   13.8295    4.8736 H         1 <0>         0.1343
     33 H9         -0.6494   11.8757    3.8284 H         1 <0>         0.1283
     34 H10        -2.1629    7.4735    1.6691 H         1 <0>         0.4561
     35 H11        -4.3335    5.5830    0.4042 H         1 <0>         0.4638
     36 H12        -3.1383    2.8367   -1.8429 H         1 <0>         0.0809
     37 H13        -2.2655    4.3993   -1.9952 H         1 <0>         0.0664
     38 H14        -3.9574    4.3706   -1.3924 H         1 <0>         0.0730
     39 H15        -0.2605    3.5343    0.0224 H         1 <0>         0.4263
     40 H16         0.0038   -0.1341    0.0014 H         1 <0>         0.4391
     41 H17         0.9340    1.5286    0.0060 H         1 <0>         0.4155
@<TRIPOS>BOND
     1    1    2 1
     2    1   26 1
     3    1   27 1
     4    1   28 1
     5    2    6 1
     6    2    3 2
     7    3    4 1
     8    3   13 1
     9    4    5 1
    10    5    6 2
    11    5    7 1
    12    7   12 ar
    13    7    8 ar
    14    8    9 ar
    15    8   29 1
    16    9   10 ar
    17    9   30 1
    18   10   11 ar
    19   10   31 1
    20   11   12 ar
    21   11   32 1
    22   12   33 1
    23   13   14 2
    24   13   15 am
    25   15   16 1
    26   15   34 1
    27   16   17 am
    28   16   35 1
    29   17   18 2
    30   17   19 1
    31   19   20 1
    32   19   21 1
    33   19   22 1
    34   21   36 1
    35   21   37 1
    36   21   38 1
    37   22   23 am
    38   22   39 1
    39   23   24 2
    40   23   25 am
    41   25   40 1
    42   25   41 1
@<TRIPOS>MOLECULE
ZINC39012220
   42    44     0     0     0
SMALL
USER_CHARGES

@<TRIPOS>ATOM
      1 C1         -0.0173    1.4798   -0.0437 C.3       1 <0>        -0.0916
      2 C2          0.0046   -0.0271   -0.0416 C.2       1 <0>        -0.0154
      3 C3         -1.0830   -0.8008   -0.0381 C.2       1 <0>        -0.1870
      4 C4         -0.5265   -2.2136   -0.0372 C.3       1 <0>        -0.0016
      5 H1         -0.8379   -2.7512   -0.9328 H         1 <0>         0.1580
      6 N1          0.9301   -1.9956   -0.0407 N.2       1 <0>        -0.1043
      7 N2          1.1281   -0.7782   -0.0487 N.2       1 <0>        -0.1698
      8 C5         -0.9619   -2.9659    1.2219 C.3       1 <0>         0.2232
      9 H2         -2.0490   -3.0168    1.2829 H         1 <0>         0.0572
     10 N3         -0.3956   -2.3274    2.4388 N.3       1 <0>        -0.4681
     11 N4         -0.3693   -3.3997    3.4372 N.3       1 <0>        -0.4806
     12 C6         -0.3454   -4.6761    2.6945 C.3       1 <0>         0.1698
     13 H3         -1.2231   -5.2712    2.9463 H         1 <0>         0.0920
     14 N5         -0.3683   -4.3289    1.2527 N.3       1 <0>        -0.2954
     15 N6         -1.1824   -5.2689    0.4992 N.3       1 <0>        -0.6584
     16 S1          1.1653   -5.5983    3.0919 S.3       1 <0>        -0.0847
     17 C7          2.5052   -4.4719    2.6160 C.3       1 <0>        -0.1154
     18 C8          3.8340   -5.1244    2.8979 C.2       1 <0>         0.5337
     19 O1          3.8733   -6.2396    3.3732 O.2       1 <0>        -0.5069
     20 N7          4.9787   -4.4688    2.6220 N.am      1 <0>        -0.6675
     21 C9          6.2111   -5.0337    2.9726 C.ar      1 <0>         0.1355
     22 C10         7.2548   -4.2197    3.3923 C.ar      1 <0>        -0.1140
     23 C11         8.4695   -4.7788    3.7376 C.ar      1 <0>        -0.1346
     24 C12         8.6472   -6.1502    3.6651 C.ar      1 <0>         0.0838
     25 C13         7.6076   -6.9638    3.2467 C.ar      1 <0>        -0.1346
     26 C14         6.3894   -6.4091    2.9065 C.ar      1 <0>        -0.0916
     27 F1          9.8364   -6.6952    4.0024 F         1 <0>        -0.1395
     28 H4          1.0050    1.8580   -0.0514 H         1 <0>         0.0804
     29 H5         -0.5425    1.8342   -0.9306 H         1 <0>         0.0778
     30 H6         -0.5301    1.8370    0.8493 H         1 <0>         0.0780
     31 H7         -2.1183   -0.4934   -0.0360 H         1 <0>         0.1668
     32 H8         -0.9741   -1.5604    2.7472 H         1 <0>         0.3481
     33 H9         -1.1743   -3.3491    4.0435 H         1 <0>         0.3274
     34 H10        -0.7796   -6.1938    0.5201 H         1 <0>         0.3742
     35 H11        -2.1317   -5.2801    0.8409 H         1 <0>         0.3190
     36 H12         2.4296   -4.2463    1.5523 H         1 <0>         0.1282
     37 H13         2.4247   -3.5487    3.1898 H         1 <0>         0.1241
     38 H14         4.9489   -3.6056    2.1806 H         1 <0>         0.4169
     39 H15         7.1168   -3.1500    3.4484 H         1 <0>         0.1376
     40 H16         9.2815   -4.1460    4.0642 H         1 <0>         0.1403
     41 H17         7.7483   -8.0331    3.1905 H         1 <0>         0.1394
     42 H18         5.5774   -7.0444    2.5845 H         1 <0>         0.1494
@<TRIPOS>BOND
     1    1    2 1
     2    1   28 1
     3    1   29 1
     4    1   30 1
     5    2    7 1
     6    2    3 2
     7    3    4 1
     8    3   31 1
     9    4    5 1
    10    4    6 1
    11    4    8 1
    12    6    7 2
    13    8    9 1
    14    8   14 1
    15    8   10 1
    16   10   11 1
    17   10   32 1
    18   11   12 1
    19   11   33 1
    20   12   13 1
    21   12   14 1
    22   12   16 1
    23   14   15 1
    24   15   34 1
    25   15   35 1
    26   16   17 1
    27   17   18 1
    28   17   36 1
    29   17   37 1
    30   18   19 2
    31   18   20 am
    32   20   21 1
    33   20   38 1
    34   21   26 ar
    35   21   22 ar
    36   22   23 ar
    37   22   39 1
    38   23   24 ar
    39   23   40 1
    40   24   25 ar
    41   24   27 1
    42   25   26 ar
    43   25   41 1
    44   26   42 1
@<TRIPOS>MOLECULE
ZINC42955829
   41    43     0     0     0
SMALL
USER_CHARGES

@<TRIPOS>ATOM
      1 C1         -0.8740   -1.1119    4.4878 C.ar      1 <0>        -0.1068
      2 C2          0.0404   -0.0811    4.3694 C.ar      1 <0>        -0.0868
      3 C3          1.2380   -0.2872    3.7104 C.ar      1 <0>        -0.1357
      4 C4          1.5251   -1.5266    3.1671 C.ar      1 <0>         0.1138
      5 C5          0.6071   -2.5643    3.2850 C.ar      1 <0>         0.0953
      6 C6         -0.5941   -2.3519    3.9478 C.ar      1 <0>        -0.1025
      7 N1          0.8936   -3.8215    2.7356 N.pl3     1 <0>        -0.2105
      8 C7          0.0679   -4.9015    2.7878 C.2       1 <0>        -0.0194
      9 C8          0.6986   -5.9118    2.1510 C.2       1 <0>        -0.1467
     10 C9          1.9361   -5.3815    1.7182 C.2       1 <0>         0.0144
     11 N2          1.9718   -4.1208    2.1045 N.2       1 <0>        -0.2357
     12 C10         2.9867   -6.1012    0.9708 C.2       1 <0>         0.6177
     13 O1          2.8273   -7.2682    0.6696 O.2       1 <0>        -0.5234
     14 N3          4.1222   -5.4643    0.6225 N.am      1 <0>        -0.6871
     15 C11         5.1645   -6.1783   -0.1192 C.3       1 <0>         0.1087
     16 C12         4.8555   -6.1290   -1.5933 C.2       1 <0>         0.5148
     17 O2          4.1890   -5.2211   -2.0431 O.2       1 <0>        -0.5098
     18 N4          5.3198   -7.0938   -2.4118 N.am      1 <0>        -0.8457
     19 C13         6.4990   -5.5264    0.1364 C.2       1 <0>         0.5248
     20 O3          6.5505   -4.3634    0.4767 O.2       1 <0>        -0.5099
     21 N5          7.6352   -6.2358   -0.0131 N.am      1 <0>        -0.8424
     22 C14        -0.1530   -7.1581    2.1629 C.3       1 <0>        -0.0468
     23 C15        -1.2109   -6.9082    3.2610 C.3       1 <0>        -0.1147
     24 C16        -1.2793   -5.3650    3.2946 C.3       1 <0>        -0.0413
     25 F1          2.6953   -1.7283    2.5226 F         1 <0>        -0.1104
     26 H1         -1.8066   -0.9482    5.0072 H         1 <0>         0.1445
     27 H2         -0.1818    0.8874    4.7926 H         1 <0>         0.1436
     28 H3          1.9498    0.5199    3.6194 H         1 <0>         0.1495
     29 H4         -1.3091   -3.1560    4.0414 H         1 <0>         0.1462
     30 H5          4.2494   -4.5332    0.8628 H         1 <0>         0.4255
     31 H6          5.1984   -7.2167    0.2104 H         1 <0>         0.1356
     32 H7          5.7909   -7.8574   -2.0431 H         1 <0>         0.4023
     33 H8          5.1829   -7.0247   -3.3696 H         1 <0>         0.4095
     34 H9          7.5922   -7.1833   -0.2159 H         1 <0>         0.4045
     35 H10         8.4959   -5.7987    0.0822 H         1 <0>         0.4132
     36 H11        -0.6362   -7.2960    1.1957 H         1 <0>         0.0845
     37 H12         0.4533   -8.0289    2.4121 H         1 <0>         0.0839
     38 H13        -2.1735   -7.3343    2.9785 H         1 <0>         0.0891
     39 H14        -0.8777   -7.3045    4.2202 H         1 <0>         0.0800
     40 H15        -1.4409   -5.0157    4.3144 H         1 <0>         0.0824
     41 H16        -2.0738   -5.0063    2.6403 H         1 <0>         0.0921
@<TRIPOS>BOND
     1    1    6 ar
     2    1    2 ar
     3    1   26 1
     4    2    3 ar
     5    2   27 1
     6    3    4 ar
     7    3   28 1
     8    4    5 ar
     9    4   25 1
    10    5    6 ar
    11    5    7 1
    12    6   29 1
    13    7   11 1
    14    7    8 1
    15    8   24 1
    16    8    9 2
    17    9   10 1
    18    9   22 1
    19   10   11 2
    20   10   12 1
    21   12   13 2
    22   12   14 am
    23   14   15 1
    24   14   30 1
    25   15   16 1
    26   15   19 1
    27   15   31 1
    28   16   17 2
    29   16   18 am
    30   18   32 1
    31   18   33 1
    32   19   20 2
    33   19   21 am
    34   21   34 1
    35   21   35 1
    36   22   23 1
    37   22   36 1
    38   22   37 1
    39   23   24 1
    40   23   38 1
    41   23   39 1
    42   24   40 1
    43   24   41 1
@<TRIPOS>MOLECULE
ZINC59309542
   43    45     0     0     0
SMALL
USER_CHARGES

@<TRIPOS>ATOM
      1 C1         -0.0184    1.5028    0.0103 C.3       1 <0>        -0.1574
      2 C2          0.0021   -0.0041    0.0020 C.2       1 <0>         0.1471
      3 N1          0.0216   -0.6592    1.1227 N.2       1 <0>        -0.2162
      4 N2          0.0237    0.0347    2.3398 N.pl3     1 <0>        -0.5508
      5 C3          0.0445   -0.6629    3.5333 C.2       1 <0>         0.5637
      6 N3          0.0693   -1.9728    3.6639 N.2       1 <0>        -0.5195
      7 C4          0.0840   -2.2953    4.9616 C.2       1 <0>         0.2162
      8 N4          0.0687   -1.1942    5.6746 N.2       1 <0>        -0.3267
      9 N5          0.0488   -0.1207    4.7697 N.pl3     1 <0>        -0.5067
     10 S1          0.1174   -3.9337    5.6091 S.3       1 <0>         0.1139
     11 C5          0.1255   -3.6949    7.4073 C.3       1 <0>        -0.1631
     12 C6          0.1540   -5.0370    8.0921 C.2       1 <0>         0.5409
     13 O1          0.1674   -6.0544    7.4321 O.2       1 <0>        -0.5160
     14 N6          0.1645   -5.1067    9.4380 N.am      1 <0>        -0.6971
     15 C7          0.1921   -6.4114   10.1038 C.3       1 <0>         0.0774
     16 C8         -0.7325   -6.6106   11.3064 C.3       1 <0>        -0.1913
     17 C9          0.7766   -6.4714   11.5164 C.3       1 <0>        -0.1873
     18 C10        -0.0001   -0.7342   -1.2785 C.ar      1 <0>        -0.1126
     19 C11        -0.0153   -0.0306   -2.4861 C.ar      1 <0>        -0.0405
     20 C12        -0.0168   -0.7164   -3.6809 C.ar      1 <0>        -0.2047
     21 C13        -0.0033   -2.1070   -3.6865 C.ar      1 <0>         0.2350
     22 C14         0.0114   -2.8105   -2.4869 C.ar      1 <0>        -0.2038
     23 C15         0.0188   -2.1316   -1.2882 C.ar      1 <0>        -0.0235
     24 N7         -0.0049   -2.7981   -4.8987 N.pl3     1 <0>        -0.8730
     25 H1          1.0042    1.8801    0.0026 H         1 <0>         0.0878
     26 H2         -0.5455    1.8639   -0.8728 H         1 <0>         0.0912
     27 H3         -0.5286    1.8543    0.9071 H         1 <0>         0.0652
     28 H4          0.0105    1.0046    2.3452 H         1 <0>         0.3981
     29 H5          1.0075   -3.1221    7.6937 H         1 <0>         0.1232
     30 H6         -0.7721   -3.1535    7.7060 H         1 <0>         0.1231
     31 H7          0.1538   -4.2930    9.9659 H         1 <0>         0.4048
     32 H8          0.3622   -7.2683    9.4519 H         1 <0>         0.1414
     33 H9         -1.3614   -5.7709   11.6022 H         1 <0>         0.0980
     34 H10        -1.1711   -7.5987   11.4458 H         1 <0>         0.1048
     35 H11         1.3308   -7.3680   11.7941 H         1 <0>         0.1060
     36 H12         1.1405   -5.5402   11.9505 H         1 <0>         0.0984
     37 H13        -0.0262    1.0494   -2.4825 H         1 <0>         0.1281
     38 H14        -0.0289   -0.1734   -4.6143 H         1 <0>         0.1247
     39 H15         0.0215   -3.8905   -2.4952 H         1 <0>         0.1254
     40 H16         0.0347   -2.6786   -0.3571 H         1 <0>         0.1373
     41 H17        -0.0154   -2.3086   -5.7361 H         1 <0>         0.3998
     42 H18         0.0046   -3.7681   -4.9040 H         1 <0>         0.4008
     43 H19         0.0384    0.8240    4.9896 H         1 <0>         0.4376
@<TRIPOS>BOND
     1    1    2 1
     2    1   25 1
     3    1   26 1
     4    1   27 1
     5    2    3 2
     6    2   18 1
     7    3    4 1
     8    4    5 1
     9    4   28 1
    10    5    9 1
    11    5    6 2
    12    6    7 1
    13    7    8 2
    14    7   10 1
    15    8    9 1
    16    9   43 1
    17   10   11 1
    18   11   12 1
    19   11   29 1
    20   11   30 1
    21   12   13 2
    22   12   14 am
    23   14   15 1
    24   14   31 1
    25   15   17 1
    26   15   16 1
    27   15   32 1
    28   16   17 1
    29   16   33 1
    30   16   34 1
    31   17   35 1
    32   17   36 1
    33   18   23 ar
    34   18   19 ar
    35   19   20 ar
    36   19   37 1
    37   20   21 ar
    38   20   38 1
    39   21   22 ar
    40   21   24 1
    41   22   23 ar
    42   22   39 1
    43   23   40 1
    44   24   41 1
    45   24   42 1
@<TRIPOS>MOLECULE
ZINC06074866
   57    59     0     0     0
SMALL
USER_CHARGES
4-amino-N'-(4-chlorophenyl)-N'-[(4-chlorophenyl)-(tert-butylcarbamoyl)methyl]-isothiazole-3,5-dicarboxamide
@<TRIPOS>ATOM
      1 C1          4.5377    3.4222   -3.8906 C.3       1 <0>        -0.1645
      2 C2          3.0236    3.2159   -3.8154 C.3       1 <0>         0.1707
      3 C3          2.5003    2.7754   -5.1840 C.3       1 <0>        -0.1573
      4 C4          2.3496    4.5282   -3.4099 C.3       1 <0>        -0.1632
      5 N1          2.7203    2.1835   -2.8212 N.am      1 <0>        -0.7127
      6 C5          3.0896    2.3559   -1.5365 C.2       1 <0>         0.5150
      7 O1          3.6731    3.3656   -1.2036 O.2       1 <0>        -0.5182
      8 C6          2.7776    1.2939   -0.5138 C.3       1 <0>         0.1703
      9 H1          3.2578    0.3590   -0.8027 H         1 <0>         0.1407
     10 C7          1.2862    1.0907   -0.4397 C.ar      1 <0>        -0.1064
     11 C8          0.7621   -0.1885   -0.4451 C.ar      1 <0>        -0.0799
     12 C9         -0.6060   -0.3755   -0.3829 C.ar      1 <0>        -0.1106
     13 C10        -1.4503    0.7177   -0.3042 C.ar      1 <0>        -0.0206
     14 C11        -0.9253    1.9977   -0.2993 C.ar      1 <0>        -0.1078
     15 C12         0.4427    2.1835   -0.3668 C.ar      1 <0>        -0.0756
     16 Cl1        -3.1684    0.4836   -0.2200 Cl        1 <0>        -0.0628
     17 N2          3.2786    1.7157    0.7966 N.am      1 <0>        -0.5434
     18 C13         2.7035    2.8138    1.4450 C.ar      1 <0>         0.1069
     19 C14         3.0809    4.1039    1.0957 C.ar      1 <0>        -0.0839
     20 C15         2.5080    5.1863    1.7341 C.ar      1 <0>        -0.1118
     21 C16         1.5665    4.9860    2.7284 C.ar      1 <0>        -0.0189
     22 C17         1.1926    3.7014    3.0821 C.ar      1 <0>        -0.1100
     23 C18         1.7584    2.6156    2.4432 C.ar      1 <0>        -0.0885
     24 Cl2         0.8529    6.3487    3.5331 Cl        1 <0>        -0.0621
     25 C19         4.2937    1.0458    1.3775 C.2       1 <0>         0.6374
     26 O2          4.7257    0.0304    0.8636 O.2       1 <0>        -0.5307
     27 C20         4.8766    1.5394    2.6263 C.2       1 <0>        -0.3933
     28 C21         5.8650    0.9663    3.4289 C.2       1 <0>         0.2785
     29 C22         6.1589    1.7423    4.5502 C.2       1 <0>        -0.0403
     30 N3          5.5160    2.8739    4.7359 N.2       1 <0>        -0.4460
     31 S1          4.5206    3.0353    3.5245 S.3       1 <0>         0.4728
     32 C23         7.1794    1.2979    5.5171 C.2       1 <0>         0.6022
     33 O3          7.7698    0.2498    5.3393 O.2       1 <0>        -0.5423
     34 N4          7.4577    2.0532    6.5981 N.am      1 <0>        -0.8305
     35 N5          6.4867   -0.2418    3.1425 N.pl3     1 <0>        -0.8049
     36 H2          5.0180    2.4873   -4.1795 H         1 <0>         0.0544
     37 H3          4.7634    4.1903   -4.6304 H         1 <0>         0.0641
     38 H4          4.9106    3.7361   -2.9156 H         1 <0>         0.0785
     39 H5          1.4216    2.6283   -5.1304 H         1 <0>         0.0628
     40 H6          2.7260    3.5435   -5.9237 H         1 <0>         0.0753
     41 H7          2.9805    1.8404   -5.4729 H         1 <0>         0.0629
     42 H8          2.7224    4.8420   -2.4349 H         1 <0>         0.0784
     43 H9          2.5752    5.2963   -4.1496 H         1 <0>         0.0640
     44 H10         1.2708    4.3811   -3.3563 H         1 <0>         0.0542
     45 H11         2.2536    1.3759   -3.0875 H         1 <0>         0.4012
     46 H12         1.4215   -1.0419   -0.5024 H         1 <0>         0.1378
     47 H13        -1.0155   -1.3747   -0.3920 H         1 <0>         0.1383
     48 H14        -1.5842    2.8516   -0.2431 H         1 <0>         0.1361
     49 H15         0.8527    3.1826   -0.3630 H         1 <0>         0.1306
     50 H16         3.8186    4.2607    0.3226 H         1 <0>         0.1789
     51 H17         2.7981    6.1899    1.4601 H         1 <0>         0.1410
     52 H18         0.4574    3.5479    3.8581 H         1 <0>         0.1406
     53 H19         1.4660    1.6133    2.7194 H         1 <0>         0.1351
     54 H20         6.9867    2.8892    6.7399 H         1 <0>         0.4118
     55 H21         8.1291    1.7608    7.2342 H         1 <0>         0.4098
     56 H22         6.2400   -0.7373    2.3460 H         1 <0>         0.4160
     57 H23         7.1677   -0.5902    3.7390 H         1 <0>         0.4197
@<TRIPOS>BOND
     1    1    2 1
     2    1   36 1
     3    1   37 1
     4    1   38 1
     5    2    3 1
     6    2    4 1
     7    2    5 1
     8    3   39 1
     9    3   40 1
    10    3   41 1
    11    4   42 1
    12    4   43 1
    13    4   44 1
    14    5    6 am
    15    5   45 1
    16    6    7 2
    17    6    8 1
    18    8    9 1
    19    8   10 1
    20    8   17 1
    21   10   15 ar
    22   10   11 ar
    23   11   12 ar
    24   11   46 1
    25   12   13 ar
    26   12   47 1
    27   13   14 ar
    28   13   16 1
    29   14   15 ar
    30   14   48 1
    31   15   49 1
    32   17   18 1
    33   17   25 am
    34   18   23 ar
    35   18   19 ar
    36   19   20 ar
    37   19   50 1
    38   20   21 ar
    39   20   51 1
    40   21   22 ar
    41   21   24 1
    42   22   23 ar
    43   22   52 1
    44   23   53 1
    45   25   26 2
    46   25   27 1
    47   27   31 1
    48   27   28 2
    49   28   29 1
    50   28   35 1
    51   29   30 2
    52   29   32 1
    53   30   31 1
    54   32   33 2
    55   32   34 am
    56   34   54 1
    57   34   55 1
    58   35   56 1
    59   35   57 1
@<TRIPOS>MOLECULE
ZINC12467272
   61    63     0     0     0
SMALL
USER_CHARGES
4-amino-N'-(2,5-dimethylphenyl)-N'-[(1S)-1-(4-fluorophenyl)-2-(2-methoxyethylamino)-2-oxo-ethyl]isothiazole-3,5-dicarboxamide
@<TRIPOS>ATOM
      1 C1          2.1696    2.9666   -0.5898 C.3       1 <0>        -0.1176
      2 C2          0.8108    2.3901   -0.2861 C.ar      1 <0>        -0.0806
      3 C3          0.6750    1.0369   -0.0344 C.ar      1 <0>        -0.0985
      4 C4         -0.5700    0.5039    0.2442 C.ar      1 <0>        -0.1075
      5 C5         -1.6834    1.3211    0.2668 C.ar      1 <0>        -0.0676
      6 C6         -1.5498    2.6811    0.0197 C.ar      1 <0>         0.1167
      7 C7         -0.2975    3.2134   -0.2599 C.ar      1 <0>        -0.1052
      8 N1         -2.6743    3.5120    0.0465 N.am      1 <0>        -0.5477
      9 C8         -3.1377    4.0766    1.3164 C.3       1 <0>         0.1861
     10 H1         -4.1887    3.8273    1.4629 H         1 <0>         0.1159
     11 C9         -2.3233    3.5040    2.4478 C.ar      1 <0>        -0.1150
     12 C10        -0.9555    3.7018    2.4833 C.ar      1 <0>        -0.0544
     13 C11        -0.2084    3.1820    3.5232 C.ar      1 <0>        -0.1487
     14 C12        -0.8287    2.4528    4.5236 C.ar      1 <0>         0.1166
     15 C13        -2.1978    2.2505    4.4840 C.ar      1 <0>        -0.1537
     16 C14        -2.9437    2.7765    3.4462 C.ar      1 <0>        -0.0668
     17 F1         -0.0984    1.9388    5.5373 F         1 <0>        -0.1364
     18 C15        -2.9759    5.5746    1.2890 C.2       1 <0>         0.5126
     19 O1         -2.5185    6.1172    0.3055 O.2       1 <0>        -0.5158
     20 N2         -3.3395    6.3114    2.3574 N.am      1 <0>        -0.7194
     21 C16        -3.1822    7.7676    2.3307 C.3       1 <0>         0.1248
     22 C17        -3.6662    8.3573    3.6569 C.3       1 <0>         0.0469
     23 O2         -2.8204    7.9050    4.7162 O.3       1 <0>        -0.3885
     24 C18        -3.1876    8.4008    6.0052 C.3       1 <0>         0.0305
     25 C19        -3.3316    3.7933   -1.0959 C.2       1 <0>         0.6396
     26 O3         -4.3105    4.5166   -1.0726 O.2       1 <0>        -0.5230
     27 C20        -2.8685    3.2292   -2.3649 C.2       1 <0>        -0.3861
     28 C21        -3.3940    3.3887   -3.6486 C.2       1 <0>         0.2742
     29 C22        -2.6704    2.6869   -4.6128 C.2       1 <0>        -0.0409
     30 N3         -1.6232    1.9824   -4.2449 N.2       1 <0>        -0.4542
     31 S1         -1.4795    2.1619   -2.6857 S.3       1 <0>         0.4741
     32 C23        -3.0761    2.7344   -6.0295 C.2       1 <0>         0.6020
     33 O4         -4.0461    3.3877   -6.3627 O.2       1 <0>        -0.5427
     34 N4         -2.3718    2.0536   -6.9553 N.am      1 <0>        -0.8315
     35 N5         -4.5130    4.1596   -3.9336 N.pl3     1 <0>        -0.8065
     36 C24        -3.0409    0.7382    0.5644 C.3       1 <0>        -0.1187
     37 H2          2.3460    2.9344   -1.6649 H         1 <0>         0.0738
     38 H3          2.2111    4.0000   -0.2456 H         1 <0>         0.0679
     39 H4          2.9347    2.3823   -0.0784 H         1 <0>         0.0707
     40 H5          1.5434    0.3951   -0.0558 H         1 <0>         0.1291
     41 H6         -0.6727   -0.5532    0.4400 H         1 <0>         0.1308
     42 H7         -0.1909    4.2699   -0.4568 H         1 <0>         0.1328
     43 H8         -0.4713    4.2663    1.7002 H         1 <0>         0.1347
     44 H9          0.8594    3.3408    3.5533 H         1 <0>         0.1372
     45 H10        -2.6826    1.6816    5.2635 H         1 <0>         0.1395
     46 H11        -4.0117    2.6188    3.4151 H         1 <0>         0.1369
     47 H12        -3.7054    5.8774    3.1440 H         1 <0>         0.4032
     48 H13        -2.1312    8.0169    2.1843 H         1 <0>         0.0770
     49 H14        -3.7713    8.1818    1.5124 H         1 <0>         0.0851
     50 H15        -3.6326    9.4455    3.6045 H         1 <0>         0.0684
     51 H16        -4.6899    8.0341    3.8462 H         1 <0>         0.0581
     52 H17        -2.4976    8.0121    6.7541 H         1 <0>         0.0877
     53 H18        -3.1441    9.4899    6.0015 H         1 <0>         0.0431
     54 H19        -4.2013    8.0785    6.2431 H         1 <0>         0.0426
     55 H20        -1.5981    1.5324   -6.6895 H         1 <0>         0.4113
     56 H21        -2.6387    2.0848   -7.8873 H         1 <0>         0.4090
     57 H22        -4.9760    4.6251   -3.2196 H         1 <0>         0.4160
     58 H23        -4.8318    4.2328   -4.8468 H         1 <0>         0.4184
     59 H24        -3.1859    0.6874    1.6436 H         1 <0>         0.0762
     60 H25        -3.8121    1.3699    0.1236 H         1 <0>         0.0653
     61 H26        -3.1066   -0.2642    0.1414 H         1 <0>         0.0720
@<TRIPOS>BOND
     1    1    2 1
     2    1   37 1
     3    1   38 1
     4    1   39 1
     5    2    7 ar
     6    2    3 ar
     7    3    4 ar
     8    3   40 1
     9    4    5 ar
    10    4   41 1
    11    5    6 ar
    12    5   36 1
    13    6    7 ar
    14    6    8 1
    15    7   42 1
    16    8    9 1
    17    8   25 am
    18    9   10 1
    19    9   11 1
    20    9   18 1
    21   11   16 ar
    22   11   12 ar
    23   12   13 ar
    24   12   43 1
    25   13   14 ar
    26   13   44 1
    27   14   15 ar
    28   14   17 1
    29   15   16 ar
    30   15   45 1
    31   16   46 1
    32   18   19 2
    33   18   20 am
    34   20   21 1
    35   20   47 1
    36   21   22 1
    37   21   48 1
    38   21   49 1
    39   22   23 1
    40   22   50 1
    41   22   51 1
    42   23   24 1
    43   24   52 1
    44   24   53 1
    45   24   54 1
    46   25   26 2
    47   25   27 1
    48   27   31 1
    49   27   28 2
    50   28   29 1
    51   28   35 1
    52   29   30 2
    53   29   32 1
    54   30   31 1
    55   32   33 2
    56   32   34 am
    57   34   55 1
    58   34   56 1
    59   35   57 1
    60   35   58 1
    61   36   59 1
    62   36   60 1
    63   36   61 1
@<TRIPOS>MOLECULE
ZINC03311040
   61    65     0     0     0
SMALL
USER_CHARGES
2-amino-N-[2-(2-methoxyphenyl)ethyl]-1-(4-sulfamoylphenyl)pyrrolo[5,4-b]quinoxaline-3-carboxamide
@<TRIPOS>ATOM
      1 C1         -8.6494    2.6641   12.9264 C.3       1 <0>         0.0264
      2 O1         -7.8290    1.9126   12.0297 O.3       1 <0>        -0.3124
      3 C2         -7.1907    0.8268   12.5403 C.ar      1 <0>         0.1337
      4 C3         -7.3512    0.4914   13.8771 C.ar      1 <0>        -0.2072
      5 C4         -6.7018   -0.6128   14.3936 C.ar      1 <0>        -0.0798
      6 C5         -5.8922   -1.3838   13.5796 C.ar      1 <0>        -0.1559
      7 C6         -5.7349   -1.0547   12.2461 C.ar      1 <0>        -0.0758
      8 C7         -6.3781    0.0519   11.7259 C.ar      1 <0>        -0.1165
      9 C8         -6.2021    0.4131   10.2735 C.3       1 <0>        -0.0808
     10 C9         -5.0918    1.4571   10.1385 C.3       1 <0>         0.1262
     11 N1         -4.9206    1.8082    8.7266 N.am      1 <0>        -0.7205
     12 C10        -3.9917    2.7155    8.3656 C.2       1 <0>         0.6096
     13 O2         -3.2947    3.2435    9.2131 O.2       1 <0>        -0.5279
     14 C11        -3.8209    3.0657    6.9573 C.2       1 <0>        -0.3063
     15 C12        -4.5145    4.1390    6.2264 C.ar      1 <0>         0.1791
     16 C13        -3.9911    4.0794    4.8587 C.ar      1 <0>         0.2870
     17 N2         -4.4381    4.9274    3.9575 N.ar      1 <0>        -0.4336
     18 C14        -5.3551    5.8418    4.2987 C.ar      1 <0>         0.0960
     19 C15        -5.8336    6.7569    3.3428 C.ar      1 <0>        -0.0838
     20 C16        -6.7655    7.6821    3.6982 C.ar      1 <0>        -0.1005
     21 C17        -7.2580    7.7401    5.0009 C.ar      1 <0>        -0.0998
     22 C18        -6.8193    6.8728    5.9526 C.ar      1 <0>        -0.0824
     23 C19        -5.8556    5.9013    5.6232 C.ar      1 <0>         0.0925
     24 N3         -5.4171    5.0426    6.5516 N.ar      1 <0>        -0.4143
     25 N4         -3.0776    3.0434    4.8215 N.pl3     1 <0>        -0.4519
     26 C20        -2.9718    2.4504    6.0442 C.2       1 <0>         0.4778
     27 N5         -2.1447    1.3962    6.3331 N.pl3     1 <0>        -0.8258
     28 C21        -2.3546    2.6592    3.6845 C.ar      1 <0>         0.1721
     29 C22        -2.5602    1.4076    3.1195 C.ar      1 <0>        -0.1361
     30 C23        -1.8457    1.0316    1.9989 C.ar      1 <0>        -0.0017
     31 C24        -0.9267    1.9002    1.4394 C.ar      1 <0>        -0.6687
     32 C25        -0.7160    3.1453    2.0029 C.ar      1 <0>         0.0004
     33 C26        -1.4308    3.5290    3.1206 C.ar      1 <0>        -0.1156
     34 S1         -0.0172    1.4168    0.0098 S.o2      1 <0>         2.7032
     35 O3          0.0021   -0.0041    0.0020 O.2       1 <0>        -0.9574
     36 O4          1.1718    2.1948    0.0027 O.2       1 <0>        -0.9567
     37 N6         -0.8975    1.8855   -1.3122 N.pl3     1 <0>        -1.2484
     38 H1         -9.0990    3.5012   12.3925 H         1 <0>         0.1014
     39 H2         -9.4356    2.0223   13.3240 H         1 <0>         0.0555
     40 H3         -8.0393    3.0420   13.7469 H         1 <0>         0.0564
     41 H4         -7.9836    1.0930   14.5131 H         1 <0>         0.1286
     42 H5         -6.8266   -0.8746   15.4339 H         1 <0>         0.1250
     43 H6         -5.3853   -2.2468   13.9853 H         1 <0>         0.1249
     44 H7         -5.1054   -1.6608   11.6115 H         1 <0>         0.1293
     45 H8         -7.1347    0.8223    9.8852 H         1 <0>         0.0831
     46 H9         -5.9330   -0.4787    9.7074 H         1 <0>         0.0773
     47 H10        -4.1591    1.0478   10.5268 H         1 <0>         0.0686
     48 H11        -5.3608    2.3488   10.7047 H         1 <0>         0.0724
     49 H12        -5.4758    1.3876    8.0515 H         1 <0>         0.4008
     50 H13        -5.4617    6.7251    2.3294 H         1 <0>         0.1376
     51 H14        -7.1288    8.3821    2.9603 H         1 <0>         0.1360
     52 H15        -7.9976    8.4838    5.2582 H         1 <0>         0.1363
     53 H16        -7.2091    6.9296    6.9582 H         1 <0>         0.1401
     54 H17        -1.5793    1.0196    5.6407 H         1 <0>         0.4107
     55 H18        -2.1248    1.0269    7.2298 H         1 <0>         0.4299
     56 H19        -3.2778    0.7288    3.5560 H         1 <0>         0.1442
     57 H20        -2.0052    0.0582    1.5590 H         1 <0>         0.1567
     58 H21         0.0054    3.8200    1.5661 H         1 <0>         0.1564
     59 H22        -1.2685    4.5030    3.5580 H         1 <0>         0.1429
     60 H23        -1.7474    2.3376   -1.1935 H         1 <0>         0.4180
     61 H24        -0.5632    1.7079   -2.2053 H         1 <0>         0.4237
@<TRIPOS>BOND
     1    1    2 1
     2    1   38 1
     3    1   39 1
     4    1   40 1
     5    2    3 1
     6    3    8 ar
     7    3    4 ar
     8    4    5 ar
     9    4   41 1
    10    5    6 ar
    11    5   42 1
    12    6    7 ar
    13    6   43 1
    14    7    8 ar
    15    7   44 1
    16    8    9 1
    17    9   10 1
    18    9   45 1
    19    9   46 1
    20   10   11 1
    21   10   47 1
    22   10   48 1
    23   11   12 am
    24   11   49 1
    25   12   13 2
    26   12   14 1
    27   14   26 2
    28   14   15 1
    29   15   24 ar
    30   15   16 ar
    31   16   17 ar
    32   16   25 1
    33   17   18 ar
    34   18   23 ar
    35   18   19 ar
    36   19   20 ar
    37   19   50 1
    38   20   21 ar
    39   20   51 1
    40   21   22 ar
    41   21   52 1
    42   22   23 ar
    43   22   53 1
    44   23   24 ar
    45   25   26 1
    46   25   28 1
    47   26   27 1
    48   27   54 1
    49   27   55 1
    50   28   33 ar
    51   28   29 ar
    52   29   30 ar
    53   29   56 1
    54   30   31 ar
    55   30   57 1
    56   31   32 ar
    57   31   34 1
    58   32   33 ar
    59   32   58 1
    60   33   59 1
    61   34   35 2
    62   34   36 2
    63   34   37 1
    64   37   60 1
    65   37   61 1
@<TRIPOS>MOLECULE
ZINC32990892
   78    81     0     0     0
SMALL
USER_CHARGES
3-(1-adamantylcarbamoylamino)-N-(6-amino-1-butyl-2,4-dioxo-pyrimidin-5-yl)-N-isobutyl-propanamide
@<TRIPOS>ATOM
      1 C1          1.8070   -5.7148    4.8754 C.3       1 <0>        -0.1549
      2 C2          1.9516   -4.5738    3.8664 C.3       1 <0>        -0.1216
      3 C3          0.7590   -4.5863    2.9080 C.3       1 <0>        -0.1394
      4 C4          0.9036   -3.4453    1.8990 C.3       1 <0>         0.1040
      5 N1         -0.2383   -3.4572    0.9814 N.am      1 <0>        -0.5395
      6 C5         -0.1708   -4.1840   -0.1846 C.2       1 <0>         0.4865
      7 C6         -1.2555   -4.1913   -1.0376 C.2       1 <0>        -0.1516
      8 C7         -2.3965   -3.4431   -0.6920 C.2       1 <0>         0.5703
      9 O1         -3.3673   -3.4283   -1.4298 O.2       1 <0>        -0.5145
     10 N2         -2.4091   -2.7438    0.4596 N.am      1 <0>        -0.6754
     11 H1         -3.2970   -2.1566    0.7368 H         1 <0>         0.4610
     12 C8         -1.3446   -2.7529    1.2813 C.2       1 <0>         0.7110
     13 O2         -1.3829   -2.1131    2.3148 O.2       1 <0>        -0.5396
     14 N3         -1.2191   -4.9314   -2.2383 N.am      1 <0>        -0.5252
     15 C9         -1.0672   -6.3879   -2.1967 C.3       1 <0>         0.1024
     16 C10        -2.4461   -7.0468   -2.2705 C.3       1 <0>        -0.1110
     17 C11        -2.2813   -8.5647   -2.3688 C.3       1 <0>        -0.1483
     18 C12        -3.2446   -6.7009   -1.0120 C.3       1 <0>        -0.1526
     19 C13        -1.3244   -4.2977   -3.4249 C.2       1 <0>         0.5239
     20 O3         -1.3574   -3.0855   -3.4644 O.2       1 <0>        -0.5078
     21 C14        -1.4008   -5.0955   -4.7011 C.3       1 <0>        -0.1493
     22 C15        -1.5143   -4.1423   -5.8924 C.3       1 <0>         0.1575
     23 N4         -1.5886   -4.9179   -7.1330 N.am      1 <0>        -0.7603
     24 C16        -1.6937   -4.2849   -8.3183 C.2       1 <0>         0.7081
     25 O4         -1.7268   -3.0702   -8.3579 O.2       1 <0>        -0.5848
     26 N5         -1.7621   -4.9985   -9.4596 N.am      1 <0>        -0.7522
     27 C17        -1.8763   -4.3104  -10.7479 C.3       1 <0>         0.2082
     28 C18        -3.1516   -3.4653  -10.7634 C.3       1 <0>        -0.1237
     29 C19        -3.2709   -2.7467  -12.1089 C.3       1 <0>        -0.0832
     30 C20        -3.3302   -3.7802  -13.2355 C.3       1 <0>        -0.1117
     31 C21        -2.0549   -4.6253  -13.2200 C.3       1 <0>        -0.0806
     32 C22        -1.9356   -5.3439  -11.8745 C.3       1 <0>        -0.1132
     33 C23        -0.8396   -3.7184  -13.4234 C.3       1 <0>        -0.1115
     34 C24        -0.7803   -2.6849  -12.2967 C.3       1 <0>        -0.0830
     35 C25        -2.0556   -1.8398  -12.3122 C.3       1 <0>        -0.1100
     36 C26        -0.6610   -3.4035  -10.9512 C.3       1 <0>        -0.1230
     37 N6          0.9617   -4.8985   -0.4938 N.pl3     1 <0>        -0.8586
     38 H2          2.6644   -5.7058    5.5644 H         1 <0>         0.0589
     39 H3          1.7765   -6.6755    4.3406 H         1 <0>         0.0544
     40 H4          0.8762   -5.5834    5.4466 H         1 <0>         0.0566
     41 H5          1.9821   -3.6131    4.4012 H         1 <0>         0.0698
     42 H6          2.8824   -4.7052    3.2952 H         1 <0>         0.0654
     43 H7          0.7285   -5.5471    2.3732 H         1 <0>         0.0681
     44 H8         -0.1718   -4.4549    3.4792 H         1 <0>         0.0774
     45 H9          0.9342   -2.4846    2.4338 H         1 <0>         0.1127
     46 H10         1.8344   -3.5767    1.3278 H         1 <0>         0.0910
     47 H11        -0.4572   -6.7175   -3.0507 H         1 <0>         0.0842
     48 H12        -0.5718   -6.6783   -1.2585 H         1 <0>         0.0823
     49 H13        -2.9818   -6.6779   -3.1576 H         1 <0>         0.0761
     50 H14        -3.2726   -9.0385   -2.4219 H         1 <0>         0.0601
     51 H15        -1.7456   -8.9336   -1.4817 H         1 <0>         0.0556
     52 H16        -1.7072   -8.8133   -3.2735 H         1 <0>         0.0567
     53 H17        -4.2360   -7.1746   -1.0650 H         1 <0>         0.0527
     54 H18        -3.3630   -5.6096   -0.9413 H         1 <0>         0.0704
     55 H19        -2.7089   -7.0699   -0.1249 H         1 <0>         0.0469
     56 H20        -0.4925   -5.7071   -4.8061 H         1 <0>         0.0986
     57 H21        -2.2832   -5.7516   -4.6711 H         1 <0>         0.1032
     58 H22        -2.4225   -3.5307   -5.7874 H         1 <0>         0.0732
     59 H23        -0.6319   -3.4862   -5.9224 H         1 <0>         0.0711
     60 H24        -1.5586   -6.0169   -7.0972 H         1 <0>         0.4097
     61 H25        -1.7322   -6.0975   -9.4238 H         1 <0>         0.4095
     62 H26        -4.0253   -4.1174  -10.6172 H         1 <0>         0.0566
     63 H27        -3.1090   -2.7223   -9.9534 H         1 <0>         0.0876
     64 H28        -4.1878   -2.1391  -12.1201 H         1 <0>         0.0709
     65 H29        -4.2040   -4.4322  -13.0893 H         1 <0>         0.0619
     66 H30        -3.4160   -3.2636  -14.2029 H         1 <0>         0.0641
     67 H31        -2.0975   -5.3683  -14.0300 H         1 <0>         0.0739
     68 H32        -1.0187   -5.9515  -11.8633 H         1 <0>         0.0672
     69 H33        -2.8093   -5.9960  -11.7283 H         1 <0>         0.0675
     70 H34         0.0773   -4.3260  -13.4123 H         1 <0>         0.0616
     71 H35        -0.9254   -3.2018  -14.3907 H         1 <0>         0.0641
     72 H36         0.0934   -2.0328  -12.4429 H         1 <0>         0.0706
     73 H37        -2.1414   -1.3232  -13.2795 H         1 <0>         0.0616
     74 H38        -2.0130   -1.0968  -11.5022 H         1 <0>         0.0652
     75 H39        -0.6184   -2.6605  -10.1412 H         1 <0>         0.0874
     76 H40         0.2559   -4.0111  -10.9400 H         1 <0>         0.0561
     77 H41         1.0088   -5.4775   -1.4279 H         1 <0>         0.4454
     78 H42         1.8211   -4.8914    0.1928 H         1 <0>         0.4273
@<TRIPOS>BOND
     1    1    2 1
     2    1   38 1
     3    1   39 1
     4    1   40 1
     5    2    3 1
     6    2   41 1
     7    2   42 1
     8    3    4 1
     9    3   43 1
    10    3   44 1
    11    4    5 1
    12    4   45 1
    13    4   46 1
    14    5   12 am
    15    5    6 1
    16    6    7 2
    17    6   37 1
    18    7    8 1
    19    7   14 1
    20    8    9 2
    21    8   10 am
    22   10   11 1
    23   10   12 am
    24   12   13 2
    25   14   15 1
    26   14   19 am
    27   15   16 1
    28   15   47 1
    29   15   48 1
    30   16   17 1
    31   16   18 1
    32   16   49 1
    33   17   50 1
    34   17   51 1
    35   17   52 1
    36   18   53 1
    37   18   54 1
    38   18   55 1
    39   19   20 2
    40   19   21 1
    41   21   22 1
    42   21   56 1
    43   21   57 1
    44   22   23 1
    45   22   58 1
    46   22   59 1
    47   23   24 am
    48   23   60 1
    49   24   25 2
    50   24   26 am
    51   26   27 1
    52   26   61 1
    53   27   32 1
    54   27   36 1
    55   27   28 1
    56   28   29 1
    57   28   62 1
    58   28   63 1
    59   29   35 1
    60   29   30 1
    61   29   64 1
    62   30   31 1
    63   30   65 1
    64   30   66 1
    65   31   32 1
    66   31   33 1
    67   31   67 1
    68   32   68 1
    69   32   69 1
    70   33   34 1
    71   33   70 1
    72   33   71 1
    73   34   35 1
    74   34   36 1
    75   34   72 1
    76   35   73 1
    77   35   74 1
    78   36   75 1
    79   36   76 1
    80   37   77 1
    81   37   78 1
@<TRIPOS>MOLECULE
ZINC39021279
   62    66     0     0     0
SMALL
USER_CHARGES

@<TRIPOS>ATOM
      1 C1          0.0649    1.5306   -0.0004 C.3       1 <0>        -0.1196
      2 C2          0.0768    0.0236   -0.0051 C.ar      1 <0>        -0.0730
      3 C3          0.0704   -0.6618   -1.2066 C.ar      1 <0>        -0.1220
      4 C4          0.0817   -2.0418   -1.2168 C.ar      1 <0>        -0.0819
      5 C5          0.0996   -2.7448   -0.0137 C.ar      1 <0>        -0.0386
      6 C6          0.1060   -2.0491    1.1938 C.ar      1 <0>        -0.0958
      7 C7          0.0999   -0.6690    1.1920 C.ar      1 <0>        -0.1216
      8 C8          0.1114   -4.2285   -0.0183 C.2       1 <0>         0.0104
      9 C9          0.1235   -5.0003    1.0856 C.2       1 <0>        -0.1354
     10 C10         0.1317   -6.4168    0.5389 C.3       1 <0>        -0.0190
     11 H1         -0.7592   -6.9577    0.8580 H         1 <0>         0.1662
     12 N1          0.1222   -6.2138   -0.9193 N.2       1 <0>        -0.1405
     13 N2          0.1055   -5.0003   -1.1366 N.2       1 <0>        -0.1505
     14 C11         1.3969   -7.1574    0.9766 C.3       1 <0>         0.2307
     15 H2          1.4609   -7.2000    2.0639 H         1 <0>         0.1003
     16 N3          2.6082   -6.5149    0.4028 N.3       1 <0>        -0.4874
     17 N4          3.6137   -7.5805    0.3818 N.3       1 <0>        -0.5000
     18 C12         2.8796   -8.8620    0.3689 C.3       1 <0>         0.1561
     19 H3          3.1374   -9.4492    1.2503 H         1 <0>         0.0991
     20 N5          1.4355   -8.5245    0.3928 N.3       1 <0>        -0.3321
     21 N6          0.6902   -9.4636    1.2154 N.3       1 <0>        -0.6556
     22 S1          3.2796   -9.7925   -1.1361 S.3       1 <0>        -0.0847
     23 C13         2.7929   -8.6790   -2.4829 C.3       1 <0>        -0.1250
     24 C14         3.0761   -9.3392   -3.8076 C.2       1 <0>         0.5333
     25 O1          3.5587  -10.4514   -3.8400 O.2       1 <0>        -0.4996
     26 N7          2.7930   -8.6936   -4.9564 N.am      1 <0>        -0.6622
     27 C15         3.1604   -9.2551   -6.1821 C.ar      1 <0>         0.1628
     28 C16         4.2170  -10.1517   -6.2488 C.ar      1 <0>        -0.1301
     29 C17         4.5786  -10.7057   -7.4615 C.ar      1 <0>        -0.0954
     30 C18         3.8912  -10.3712   -8.6153 C.ar      1 <0>        -0.1356
     31 C19         2.8377   -9.4811   -8.5640 C.ar      1 <0>        -0.0857
     32 C20         2.4602   -8.9199   -7.3464 C.ar      1 <0>        -0.0787
     33 C21         1.3253   -7.9672   -7.2850 C.ar      1 <0>        -0.0494
     34 C22         0.3153   -8.1423   -6.3406 C.ar      1 <0>        -0.1129
     35 C23        -0.7382   -7.2524   -6.2878 C.ar      1 <0>        -0.1121
     36 C24        -0.7930   -6.1883   -7.1699 C.ar      1 <0>        -0.1154
     37 C25         0.2063   -6.0099   -8.1096 C.ar      1 <0>        -0.1163
     38 C26         1.2675   -6.8902   -8.1678 C.ar      1 <0>        -0.1051
     39 H4          1.0896    1.9021   -0.0144 H         1 <0>         0.0738
     40 H5         -0.4648    1.8925   -0.8817 H         1 <0>         0.0690
     41 H6         -0.4386    1.8872    0.8981 H         1 <0>         0.0682
     42 H7          0.0561   -0.1160   -2.1384 H         1 <0>         0.1274
     43 H8          0.0763   -2.5759   -2.1555 H         1 <0>         0.1338
     44 H9          0.1199   -2.5889    2.1291 H         1 <0>         0.1229
     45 H10         0.1094   -0.1287    2.1272 H         1 <0>         0.1267
     46 H11         0.1269   -4.6851    2.1185 H         1 <0>         0.1741
     47 H12         2.4278   -6.1695   -0.5279 H         1 <0>         0.3642
     48 H13         4.2215   -7.5201    1.1849 H         1 <0>         0.3677
     49 H14         0.7164  -10.3912    0.8193 H         1 <0>         0.3719
     50 H15         1.0343   -9.4656    2.1639 H         1 <0>         0.3221
     51 H16         1.7279   -8.4600   -2.4063 H         1 <0>         0.1251
     52 H17         3.3607   -7.7513   -2.4105 H         1 <0>         0.1153
     53 H18         2.3344   -7.8393   -4.9323 H         1 <0>         0.4146
     54 H19         4.7575  -10.4164   -5.3520 H         1 <0>         0.1472
     55 H20         5.4020  -11.4030   -7.5095 H         1 <0>         0.1270
     56 H21         4.1806  -10.8082   -9.5595 H         1 <0>         0.1257
     57 H22         2.3042   -9.2226   -9.4668 H         1 <0>         0.1276
     58 H23         0.3570   -8.9730   -5.6516 H         1 <0>         0.1212
     59 H24        -1.5215   -7.3872   -5.5566 H         1 <0>         0.1251
     60 H25        -1.6193   -5.4943   -7.1249 H         1 <0>         0.1232
     61 H26         0.1582   -5.1775   -8.7961 H         1 <0>         0.1245
     62 H27         2.0494   -6.7474   -8.8990 H         1 <0>         0.1244
@<TRIPOS>BOND
     1    1    2 1
     2    1   39 1
     3    1   40 1
     4    1   41 1
     5    2    7 ar
     6    2    3 ar
     7    3    4 ar
     8    3   42 1
     9    4    5 ar
    10    4   43 1
    11    5    6 ar
    12    5    8 1
    13    6    7 ar
    14    6   44 1
    15    7   45 1
    16    8   13 1
    17    8    9 2
    18    9   10 1
    19    9   46 1
    20   10   11 1
    21   10   12 1
    22   10   14 1
    23   12   13 2
    24   14   15 1
    25   14   20 1
    26   14   16 1
    27   16   17 1
    28   16   47 1
    29   17   18 1
    30   17   48 1
    31   18   19 1
    32   18   20 1
    33   18   22 1
    34   20   21 1
    35   21   49 1
    36   21   50 1
    37   22   23 1
    38   23   24 1
    39   23   51 1
    40   23   52 1
    41   24   25 2
    42   24   26 am
    43   26   27 1
    44   26   53 1
    45   27   32 ar
    46   27   28 ar
    47   28   29 ar
    48   28   54 1
    49   29   30 ar
    50   29   55 1
    51   30   31 ar
    52   30   56 1
    53   31   32 ar
    54   31   57 1
    55   32   33 1
    56   33   38 ar
    57   33   34 ar
    58   34   35 ar
    59   34   58 1
    60   35   36 ar
    61   35   59 1
    62   36   37 ar
    63   36   60 1
    64   37   38 ar
    65   37   61 1
    66   38   62 1
@<TRIPOS>MOLECULE
ZINC04293354
   78    84     0     0     0
SMALL
USER_CHARGES
[3-(3,5-dihydroxy-4-methoxy-6-methyl-tetrahydropyran-2-yl)oxy-4,5-dihydroxy-6-methyl-tetrahydropyran-2-yl]oxy-hydroxy-methyl-BLAHdione
@<TRIPOS>ATOM
      1 C1         -6.5906    0.8837   -2.9271 C.3       1 <0>        -0.1356
      2 C2         -6.3517    2.2730   -2.3944 C.ar      1 <0>        -0.0103
      3 C3         -6.2416    3.3444   -3.2608 C.ar      1 <0>        -0.0954
      4 C4         -6.0230    4.6333   -2.8016 C.ar      1 <0>        -0.0726
      5 C5         -5.9054    4.8849   -1.4414 C.ar      1 <0>         0.1237
      6 C6         -6.0152    3.8044   -0.5645 C.ar      1 <0>        -0.0610
      7 C7         -6.2389    2.4919   -1.0246 C.ar      1 <0>        -0.1478
      8 C8         -6.3396    1.4231   -0.0220 C.2       1 <0>         0.5275
      9 O1         -6.5320    0.2768   -0.3803 O.2       1 <0>        -0.4317
     10 O2         -6.2191    1.7009    1.2900 O.3       1 <0>        -0.2499
     11 C9         -6.0050    2.9504    1.7597 C.ar      1 <0>         0.1688
     12 C10        -5.8979    4.0152    0.8837 C.ar      1 <0>        -0.1049
     13 C11        -5.6654    5.3832    1.3520 C.ar      1 <0>        -0.1711
     14 C12        -5.5496    5.6153    2.7122 C.ar      1 <0>         0.2155
     15 C13        -5.6592    4.5271    3.6106 C.ar      1 <0>        -0.0285
     16 C14        -5.8843    3.2092    3.1428 C.ar      1 <0>        -0.0353
     17 C15        -5.9867    2.1541    4.0719 C.ar      1 <0>         0.1564
     18 C16        -5.8721    2.4186    5.4186 C.ar      1 <0>        -0.1847
     19 C17        -5.6454    3.7154    5.8689 C.ar      1 <0>        -0.0577
     20 C18        -5.5427    4.7534    4.9941 C.ar      1 <0>        -0.1217
     21 O3         -6.2029    0.8843    3.6416 O.3       1 <0>        -0.2662
     22 C19        -6.3858   -0.1179    4.6437 C.3       1 <0>         0.2336
     23 H1         -5.7111    0.0745    5.4779 H         1 <0>         0.0823
     24 C20        -6.0826   -1.4957    4.0491 C.3       1 <0>         0.0887
     25 H2         -6.7287   -1.6726    3.1892 H         1 <0>         0.1000
     26 C21        -6.3388   -2.5692    5.1113 C.3       1 <0>         0.1264
     27 H3         -5.6576   -2.4227    5.9495 H         1 <0>         0.0854
     28 C22        -7.7857   -2.4528    5.6004 C.3       1 <0>         0.0433
     29 H4         -7.9606   -3.1770    6.3960 H         1 <0>         0.0841
     30 C23        -8.0232   -1.0381    6.1351 C.3       1 <0>         0.0607
     31 H5         -7.3699   -0.8577    6.9888 H         1 <0>         0.0762
     32 O4         -7.7373   -0.0875    5.1070 O.3       1 <0>        -0.3754
     33 C24        -9.4830   -0.8955    6.5703 C.3       1 <0>        -0.1512
     34 O5         -8.6789   -2.7092    4.5148 O.3       1 <0>        -0.5394
     35 O6         -6.1269   -3.8634    4.5437 O.3       1 <0>        -0.5363
     36 O7         -4.7151   -1.5478    3.6376 O.3       1 <0>        -0.3470
     37 C25        -4.4814   -1.0231    2.3291 C.3       1 <0>         0.2326
     38 H6         -5.2536   -0.2929    2.0870 H         1 <0>         0.0784
     39 C26        -4.5185   -2.1630    1.3079 C.3       1 <0>         0.0563
     40 H7         -5.5093   -2.6172    1.3047 H         1 <0>         0.0587
     41 C27        -4.2080   -1.6021   -0.0833 C.3       1 <0>         0.0935
     42 H8         -4.9810   -0.8890   -0.3697 H         1 <0>         0.1020
     43 C28        -2.8485   -0.8973   -0.0479 C.3       1 <0>         0.0825
     44 H9         -2.6461   -0.4471   -1.0197 H         1 <0>         0.0668
     45 C29        -2.8753    0.1924    1.0273 C.3       1 <0>         0.0710
     46 H10        -3.6265    0.9384    0.7682 H         1 <0>         0.0506
     47 O8         -3.1999   -0.3920    2.2903 O.3       1 <0>        -0.3550
     48 C30        -1.5012    0.8599    1.1120 C.3       1 <0>        -0.1474
     49 O9         -1.8264   -1.8467    0.2621 O.3       1 <0>        -0.5126
     50 O10        -4.1681   -2.6704   -1.0315 O.3       1 <0>        -0.3529
     51 C31        -5.4282   -2.9512   -1.6441 C.3       1 <0>         0.0247
     52 O11        -3.5420   -3.1469    1.6549 O.3       1 <0>        -0.5125
     53 O12        -5.3343    6.8697    3.1777 O.3       1 <0>        -0.4630
     54 C32        -5.5682    6.4352    0.3345 C.2       1 <0>         0.5421
     55 O13        -5.3762    7.5871    0.6741 O.2       1 <0>        -0.4183
     56 O14        -5.6905    6.1355   -0.9732 O.3       1 <0>        -0.2736
     57 H11        -7.6628    0.7005   -2.9962 H         1 <0>         0.0865
     58 H12        -6.1417    0.7915   -3.9161 H         1 <0>         0.0776
     59 H13        -6.1400    0.1541   -2.2542 H         1 <0>         0.0952
     60 H14        -6.3294    3.1726   -4.3234 H         1 <0>         0.1531
     61 H15        -5.9432    5.4476   -3.5065 H         1 <0>         0.1555
     62 H16        -5.9546    1.6114    6.1314 H         1 <0>         0.1385
     63 H17        -5.5538    3.9020    6.9287 H         1 <0>         0.1412
     64 H18        -5.3710    5.7537    5.3634 H         1 <0>         0.1490
     65 H19        -9.7012   -1.6212    7.3537 H         1 <0>         0.0812
     66 H20        -9.6519    0.1119    6.9509 H         1 <0>         0.0757
     67 H21       -10.1360   -1.0754    5.7162 H         1 <0>         0.0713
     68 H22        -9.6143   -2.6523    4.7532 H         1 <0>         0.3806
     69 H23        -6.2718   -4.5926    5.1621 H         1 <0>         0.3857
     70 H24        -0.7452    0.1880    0.7056 H         1 <0>         0.0687
     71 H25        -1.5111    1.7859    0.5372 H         1 <0>         0.0731
     72 H26        -1.2684    1.0813    2.1536 H         1 <0>         0.0803
     73 H27        -0.9372   -1.4686    0.3011 H         1 <0>         0.3642
     74 H28        -6.1513   -3.2287   -0.8772 H         1 <0>         0.0401
     75 H29        -5.3137   -3.7737   -2.3502 H         1 <0>         0.0878
     76 H30        -5.7808   -2.0653   -2.1724 H         1 <0>         0.0431
     77 H31        -3.6772   -3.5453    2.5256 H         1 <0>         0.3713
     78 H32        -6.1440    7.3641    3.3648 H         1 <0>         0.4077
@<TRIPOS>BOND
     1    1    2 1
     2    1   57 1
     3    1   58 1
     4    1   59 1
     5    2    7 ar
     6    2    3 ar
     7    3    4 ar
     8    3   60 1
     9    4    5 ar
    10    4   61 1
    11    5   56 1
    12    5    6 ar
    13    6   12 1
    14    6    7 ar
    15    7    8 1
    16    8    9 2
    17    8   10 1
    18   10   11 1
    19   11   16 ar
    20   11   12 ar
    21   12   13 ar
    22   13   14 ar
    23   13   54 1
    24   14   15 ar
    25   14   53 1
    26   15   20 ar
    27   15   16 ar
    28   16   17 ar
    29   17   18 ar
    30   17   21 1
    31   18   19 ar
    32   18   62 1
    33   19   20 ar
    34   19   63 1
    35   20   64 1
    36   21   22 1
    37   22   23 1
    38   22   32 1
    39   22   24 1
    40   24   25 1
    41   24   26 1
    42   24   36 1
    43   26   27 1
    44   26   28 1
    45   26   35 1
    46   28   29 1
    47   28   30 1
    48   28   34 1
    49   30   31 1
    50   30   32 1
    51   30   33 1
    52   33   65 1
    53   33   66 1
    54   33   67 1
    55   34   68 1
    56   35   69 1
    57   36   37 1
    58   37   38 1
    59   37   47 1
    60   37   39 1
    61   39   40 1
    62   39   41 1
    63   39   52 1
    64   41   42 1
    65   41   43 1
    66   41   50 1
    67   43   44 1
    68   43   45 1
    69   43   49 1
    70   45   46 1
    71   45   47 1
    72   45   48 1
    73   48   70 1
    74   48   71 1
    75   48   72 1
    76   49   73 1
    77   50   51 1
    78   51   74 1
    79   51   75 1
    80   51   76 1
    81   52   77 1
    82   53   78 1
    83   54   55 2
    84   54   56 1
@<TRIPOS>MOLECULE
ZINC08780141
   59    62     0     0     0
SMALL
USER_CHARGES
6-[[4-amino-5-(3,4-dimethoxyphenyl)-1,2,4-triazol-3-yl]sulfanylmethyl]-N'-(2-ethylphenyl)-1,3,5-triazine-2,4-diamine
@<TRIPOS>ATOM
      1 C1          2.4517    7.2235   -5.5592 C.3       1 <0>        -0.1503
      2 C2          3.5899    7.5015   -4.5752 C.3       1 <0>        -0.0880
      3 C3          3.0618    8.2940   -3.4072 C.ar      1 <0>        -0.1112
      4 C4          3.1645    9.6715   -3.4033 C.ar      1 <0>        -0.0967
      5 C5          2.6803   10.3993   -2.3321 C.ar      1 <0>        -0.1347
      6 C6          2.0918    9.7513   -1.2613 C.ar      1 <0>        -0.1043
      7 C7          1.9821    8.3748   -1.2609 C.ar      1 <0>        -0.1220
      8 C8          2.4719    7.6402   -2.3334 C.ar      1 <0>         0.1602
      9 N1          2.3659    6.2459   -2.3344 N.pl3     1 <0>        -0.6180
     10 C9          2.2705    5.5596   -1.1394 C.ar      1 <0>         0.6289
     11 N2          2.0572    4.2456   -1.1406 N.ar      1 <0>        -0.6160
     12 C10         1.9600    3.5892    0.0021 C.ar      1 <0>         0.4457
     13 N3          2.0846    4.2321    1.1501 N.ar      1 <0>        -0.6166
     14 C11         2.3033    5.5450    1.1594 C.ar      1 <0>         0.6306
     15 N4          2.3963    6.2093    0.0125 N.ar      1 <0>        -0.6325
     16 N5          2.4329    6.2153    2.3586 N.pl3     1 <0>        -0.7999
     17 C12         1.7124    2.1027   -0.0038 C.3       1 <0>        -0.0549
     18 S1         -0.0698    1.7878    0.0196 S.3       1 <0>         0.0825
     19 C13        -0.0694    0.0258    0.0084 C.2       1 <0>         0.1841
     20 N6          0.9885   -0.7531   -0.0174 N.2       1 <0>        -0.2812
     21 N7          0.6284   -1.9868   -0.0151 N.2       1 <0>        -0.2521
     22 C14        -0.6815   -2.0714    0.0033 C.2       1 <0>         0.2013
     23 N8         -1.1689   -0.7850    0.0190 N.pl3     1 <0>        -0.3024
     24 N9         -2.4791   -0.3989    0.0399 N.3       1 <0>        -0.5865
     25 C15        -1.4816   -3.3143    0.0067 C.ar      1 <0>        -0.0162
     26 C16        -2.8457   -3.2688   -0.2859 C.ar      1 <0>        -0.1167
     27 C17        -3.5911   -4.4295   -0.2823 C.ar      1 <0>        -0.1646
     28 C18        -2.9882   -5.6435    0.0115 C.ar      1 <0>         0.1189
     29 C19        -1.6276   -5.6960    0.3048 C.ar      1 <0>         0.1105
     30 C20        -0.8735   -4.5369    0.2968 C.ar      1 <0>        -0.1278
     31 O1         -1.0395   -6.8879    0.5930 O.3       1 <0>        -0.3007
     32 C21         0.3593   -6.8675    0.8842 C.3       1 <0>         0.0213
     33 O2         -3.7270   -6.7849    0.0138 O.3       1 <0>        -0.3001
     34 C22        -5.1165   -6.6588   -0.2952 C.3       1 <0>         0.0226
     35 H1          1.6690    6.6541   -5.0579 H         1 <0>         0.0520
     36 H2          2.0416    8.1681   -5.9166 H         1 <0>         0.0604
     37 H3          2.8336    6.6503   -6.4040 H         1 <0>         0.0620
     38 H4          4.3726    8.0709   -5.0765 H         1 <0>         0.0786
     39 H5          4.0000    6.5570   -4.2177 H         1 <0>         0.0683
     40 H6          3.6232   10.1806   -4.2381 H         1 <0>         0.1255
     41 H7          2.7614   11.4763   -2.3317 H         1 <0>         0.1224
     42 H8          1.7142   10.3227   -0.4263 H         1 <0>         0.1238
     43 H9          1.5191    7.8696   -0.4262 H         1 <0>         0.1486
     44 H10         2.3595    5.7606   -3.1742 H         1 <0>         0.4271
     45 H11         2.3646    5.7298    3.1956 H         1 <0>         0.4213
     46 H12         2.5922    7.1721    2.3647 H         1 <0>         0.4193
     47 H13         2.1722    1.6543    0.8768 H         1 <0>         0.1315
     48 H14         2.1468    1.6656   -0.9029 H         1 <0>         0.1308
     49 H15        -2.8391   -0.2905   -0.8964 H         1 <0>         0.3691
     50 H16        -3.0394   -1.0496    0.5697 H         1 <0>         0.3809
     51 H17        -3.3175   -2.3248   -0.5154 H         1 <0>         0.1203
     52 H18        -4.6463   -4.3929   -0.5092 H         1 <0>         0.1458
     53 H19         0.1825   -4.5768    0.5193 H         1 <0>         0.1533
     54 H20         0.9034   -6.4723    0.0263 H         1 <0>         0.0604
     55 H21         0.5405   -6.2340    1.7525 H         1 <0>         0.0590
     56 H22         0.7012   -7.8806    1.0959 H         1 <0>         0.1055
     57 H23        -5.5922   -6.0006    0.4318 H         1 <0>         0.0580
     58 H24        -5.2298   -6.2386   -1.2945 H         1 <0>         0.0578
     59 H25        -5.5875   -7.6412   -0.2586 H         1 <0>         0.1051
@<TRIPOS>BOND
     1    1    2 1
     2    1   35 1
     3    1   36 1
     4    1   37 1
     5    2    3 1
     6    2   38 1
     7    2   39 1
     8    3    8 ar
     9    3    4 ar
    10    4    5 ar
    11    4   40 1
    12    5    6 ar
    13    5   41 1
    14    6    7 ar
    15    6   42 1
    16    7    8 ar
    17    7   43 1
    18    8    9 1
    19    9   10 1
    20    9   44 1
    21   10   15 ar
    22   10   11 ar
    23   11   12 ar
    24   12   13 ar
    25   12   17 1
    26   13   14 ar
    27   14   15 ar
    28   14   16 1
    29   16   45 1
    30   16   46 1
    31   17   18 1
    32   17   47 1
    33   17   48 1
    34   18   19 1
    35   19   23 1
    36   19   20 2
    37   20   21 1
    38   21   22 2
    39   22   23 1
    40   22   25 1
    41   23   24 1
    42   24   49 1
    43   24   50 1
    44   25   30 ar
    45   25   26 ar
    46   26   27 ar
    47   26   51 1
    48   27   28 ar
    49   27   52 1
    50   28   29 ar
    51   28   33 1
    52   29   30 ar
    53   29   31 1
    54   30   53 1
    55   31   32 1
    56   32   54 1
    57   32   55 1
    58   32   56 1
    59   33   34 1
    60   34   57 1
    61   34   58 1
    62   34   59 1
@<TRIPOS>MOLECULE
ZINC16525769
   58    63     0     0     0
SMALL
USER_CHARGES
8-((N'E)-N'-(9-anthrylmethylene)hydrazino)-9-[(2R,3R,4S,5R)-3,4-dihydroxy-5-(hydroxymethyl)tetrahydrofuran-2-yl]-1H-purin-6-one
@<TRIPOS>ATOM
      1 C1          1.0150   -6.6903    5.3603 C.ar      1 <0>        -0.1255
      2 C2          0.4123   -5.6343    4.6789 C.ar      1 <0>        -0.1006
      3 C3          1.1034   -4.5099    4.3505 C.ar      1 <0>        -0.1218
      4 C4          2.4598   -4.4007    4.7028 C.ar      1 <0>        -0.0130
      5 C5          3.0972   -5.5112    5.4133 C.ar      1 <0>        -0.0611
      6 C6          2.3250   -6.6526    5.7182 C.ar      1 <0>        -0.0925
      7 C7          4.4406   -5.4328    5.7830 C.ar      1 <0>        -0.0635
      8 C8          5.1845   -4.2943    5.4703 C.ar      1 <0>        -0.0567
      9 C9          6.5445   -4.1923    5.8340 C.ar      1 <0>        -0.1135
     10 C10         7.2411   -3.0707    5.5145 C.ar      1 <0>        -0.1101
     11 C11         6.6467   -2.0096    4.8336 C.ar      1 <0>        -0.1044
     12 C12         5.3408   -2.0464    4.4556 C.ar      1 <0>        -0.1223
     13 C13         4.5628   -3.1782    4.7548 C.ar      1 <0>        -0.0112
     14 C14         3.2057   -3.2488    4.3777 C.ar      1 <0>        -0.0428
     15 C15         2.5765   -2.1360    3.6619 C.2       1 <0>         0.1029
     16 N1          3.2363   -1.0298    3.4686 N.2       1 <0>        -0.1946
     17 N2          2.6346    0.0343    2.7842 N.pl3     1 <0>        -0.5467
     18 C16         3.3343    1.2073    2.5792 C.2       1 <0>         0.5279
     19 N3          4.5623    1.4341    2.9765 N.2       1 <0>        -0.4371
     20 C17         4.9259    2.6871    2.6119 C.2       1 <0>        -0.0672
     21 C18         6.1031    3.4589    2.7734 C.2       1 <0>         0.5728
     22 O1          7.0753    3.0042    3.3520 O.2       1 <0>        -0.5059
     23 N4          6.1193    4.7125    2.2684 N.am      1 <0>        -0.6408
     24 H1          6.9132    5.2613    2.3655 H         1 <0>         0.4276
     25 C19         5.0313    5.2078    1.6260 C.2       1 <0>         0.3828
     26 N5          3.9409    4.5102    1.4694 N.2       1 <0>        -0.5073
     27 C20         3.8423    3.2594    1.9398 C.2       1 <0>         0.2571
     28 N6          2.8529    2.3097    1.9274 N.pl3     1 <0>        -0.4592
     29 C21         1.5223    2.4518    1.3310 C.3       1 <0>         0.3019
     30 H2          1.2948    3.5038    1.1590 H         1 <0>         0.1364
     31 C22         1.4390    1.6601    0.0072 C.3       1 <0>         0.0771
     32 H3          2.1707    0.8522   -0.0014 H         1 <0>         0.0851
     33 C23         0.0030    1.0899    0.0005 C.3       1 <0>         0.0451
     34 H4          0.0248    0.0001   -0.0114 H         1 <0>         0.0868
     35 C24        -0.6114    1.6045    1.3211 C.3       1 <0>         0.0465
     36 H5         -1.1661    2.5266    1.1475 H         1 <0>         0.1054
     37 O2          0.5208    1.8535    2.1825 O.3       1 <0>        -0.3525
     38 C25        -1.5235    0.5403    1.9346 C.3       1 <0>         0.0823
     39 O3         -2.1709    1.0765    3.0902 O.3       1 <0>        -0.5605
     40 O4         -0.7280    1.5871   -1.1222 O.3       1 <0>        -0.5369
     41 O5          1.6378    2.5293   -1.1095 O.3       1 <0>        -0.5264
     42 H6          0.4286   -7.5648    5.6007 H         1 <0>         0.1235
     43 H7         -0.6296   -5.7106    4.4051 H         1 <0>         0.1225
     44 H8          0.6131   -3.7058    3.8219 H         1 <0>         0.1243
     45 H9          2.7686   -7.4842    6.2454 H         1 <0>         0.1309
     46 H10         4.9044   -6.2530    6.3106 H         1 <0>         0.1363
     47 H11         7.0282   -5.0007    6.3620 H         1 <0>         0.1288
     48 H12         8.2815   -2.9992    5.7953 H         1 <0>         0.1222
     49 H13         7.2380   -1.1365    4.6001 H         1 <0>         0.1258
     50 H14         4.9040   -1.2108    3.9289 H         1 <0>         0.1835
     51 H15         1.5655   -2.2329    3.2946 H         1 <0>         0.1238
     52 H16         1.7266   -0.0528    2.4543 H         1 <0>         0.3970
     53 H17         5.0698    6.2125    1.2317 H         1 <0>         0.2201
     54 H18        -2.2744    0.2402    1.2038 H         1 <0>         0.0705
     55 H19        -0.9284   -0.3269    2.2211 H         1 <0>         0.0551
     56 H20        -2.7662    0.4551    3.5313 H         1 <0>         0.3879
     57 H21        -1.6454    1.2839   -1.1598 H         1 <0>         0.3899
     58 H22         1.5367    2.0961   -1.9681 H         1 <0>         0.3943
@<TRIPOS>BOND
     1    1    6 ar
     2    1    2 ar
     3    1   42 1
     4    2    3 ar
     5    2   43 1
     6    3    4 ar
     7    3   44 1
     8    4   14 ar
     9    4    5 ar
    10    5    6 ar
    11    5    7 ar
    12    6   45 1
    13    7    8 ar
    14    7   46 1
    15    8   13 ar
    16    8    9 ar
    17    9   10 ar
    18    9   47 1
    19   10   11 ar
    20   10   48 1
    21   11   12 ar
    22   11   49 1
    23   12   13 ar
    24   12   50 1
    25   13   14 ar
    26   14   15 1
    27   15   16 2
    28   15   51 1
    29   16   17 1
    30   17   18 1
    31   17   52 1
    32   18   28 1
    33   18   19 2
    34   19   20 1
    35   20   27 2
    36   20   21 1
    37   21   22 2
    38   21   23 am
    39   23   24 1
    40   23   25 1
    41   25   26 2
    42   25   53 1
    43   26   27 1
    44   27   28 1
    45   28   29 1
    46   29   30 1
    47   29   37 1
    48   29   31 1
    49   31   32 1
    50   31   33 1
    51   31   41 1
    52   33   34 1
    53   33   35 1
    54   33   40 1
    55   35   36 1
    56   35   37 1
    57   35   38 1
    58   38   39 1
    59   38   54 1
    60   38   55 1
    61   39   56 1
    62   40   57 1
    63   41   58 1
@<TRIPOS>MOLECULE
ZINC36517761
   67    68     0     0     0
SMALL
USER_CHARGES

@<TRIPOS>ATOM
      1 C1          0.4422    0.6967   -4.2635 C.3       1 <0>        -0.1550
      2 C2          0.3821   -0.5226   -3.3412 C.3       1 <0>        -0.1243
      3 C3         -1.0741   -0.8098   -2.9697 C.3       1 <0>        -0.1213
      4 C4         -1.1342   -2.0291   -2.0474 C.3       1 <0>        -0.1163
      5 C5         -2.5903   -2.3162   -1.6759 C.3       1 <0>        -0.1472
      6 C6         -2.6504   -3.5355   -0.7536 C.3       1 <0>         0.1158
      7 N1         -4.0447   -3.8105   -0.3978 N.am      1 <0>        -0.5952
      8 C7         -4.8500   -4.7072   -1.2307 C.3       1 <0>         0.2021
      9 H1         -4.2562   -5.0452   -2.0800 H         1 <0>         0.1139
     10 C8         -5.2823   -5.8979   -0.4143 C.ar      1 <0>        -0.1420
     11 C9         -6.3145   -6.7081   -0.8627 C.ar      1 <0>         0.1462
     12 C10        -6.7124   -7.8038   -0.1115 C.ar      1 <0>        -0.1782
     13 C11        -6.0777   -8.0895    1.0879 C.ar      1 <0>         0.1460
     14 C12        -5.0448   -7.2797    1.5359 C.ar      1 <0>        -0.1806
     15 C13        -4.6441   -6.1866    0.7826 C.ar      1 <0>         0.1768
     16 O1         -3.6289   -5.3958    1.2192 O.3       1 <0>        -0.4905
     17 O2         -6.4681   -9.1626    1.8245 O.3       1 <0>        -0.4927
     18 O3         -6.9365   -6.4282   -2.0381 O.3       1 <0>        -0.4848
     19 C14        -6.0670   -3.9716   -1.7296 C.2       1 <0>         0.5172
     20 O4         -6.7364   -3.3151   -0.9604 O.2       1 <0>        -0.4777
     21 N2         -6.4114   -4.0433   -3.0306 N.am      1 <0>        -0.6978
     22 C15        -7.4957   -3.2053   -3.5486 C.3       1 <0>        -0.3504
     23 S1         -6.8003   -1.6899   -4.2631 S.o2      1 <0>         2.4643
     24 O5         -7.8346   -0.8951   -4.8266 O.2       1 <0>        -0.9344
     25 O6         -5.8519   -1.1191   -3.3720 O.2       1 <0>        -0.9209
     26 C16        -5.8495   -2.2348   -5.6429 C.ar      1 <0>        -0.6631
     27 C17        -4.5168   -2.5626   -5.4778 C.ar      1 <0>        -0.0181
     28 C18        -3.7709   -2.9900   -6.5603 C.ar      1 <0>        -0.1405
     29 C19        -4.3579   -3.0902   -7.8078 C.ar      1 <0>        -0.0279
     30 C20        -5.6909   -2.7633   -7.9727 C.ar      1 <0>        -0.1397
     31 C21        -6.4379   -2.3399   -6.8894 C.ar      1 <0>        -0.0197
     32 C22        -3.5445   -3.5553   -8.9881 C.3       1 <0>        -0.1270
     33 C23        -4.5866   -3.2385    0.6956 C.2       1 <0>         0.5067
     34 O7         -5.6678   -3.6092    1.1012 O.2       1 <0>        -0.4732
     35 C24        -3.8490   -2.1383    1.4144 C.3       1 <0>         0.0564
     36 O8         -4.6220   -1.6982    2.5327 O.3       1 <0>        -0.5468
     37 H2          1.4796    0.9013   -4.5282 H         1 <0>         0.0530
     38 H3         -0.1310    0.4961   -5.1687 H         1 <0>         0.0528
     39 H4          0.0207    1.5613   -3.7508 H         1 <0>         0.0540
     40 H5          0.8035   -1.3872   -3.8540 H         1 <0>         0.0597
     41 H6          0.9552   -0.3220   -2.4360 H         1 <0>         0.0606
     42 H7         -1.4955    0.0548   -2.4569 H         1 <0>         0.0633
     43 H8         -1.6472   -1.0103   -3.8749 H         1 <0>         0.0617
     44 H9         -0.7127   -2.8936   -2.5602 H         1 <0>         0.0639
     45 H10        -0.5610   -1.8285   -1.1422 H         1 <0>         0.0646
     46 H11        -3.0118   -1.4516   -1.1631 H         1 <0>         0.0709
     47 H12        -3.1635   -2.5168   -2.5811 H         1 <0>         0.0680
     48 H13        -2.2290   -4.4001   -1.2664 H         1 <0>         0.0847
     49 H14        -2.0772   -3.3349    0.1516 H         1 <0>         0.0857
     50 H15        -7.5167   -8.4344   -0.4604 H         1 <0>         0.1405
     51 H16        -4.5508   -7.5020    2.4702 H         1 <0>         0.1394
     52 H17        -3.9019   -4.7208    1.8556 H         1 <0>         0.3884
     53 H18        -5.9983   -9.9798    1.6086 H         1 <0>         0.3954
     54 H19        -6.5824   -6.9135   -2.7958 H         1 <0>         0.3888
     55 H20        -5.9413   -4.6497   -3.6241 H         1 <0>         0.4064
     56 H21        -8.0419   -3.7520   -4.3172 H         1 <0>         0.1436
     57 H22        -8.1741   -2.9457   -2.7359 H         1 <0>         0.1553
     58 H23        -4.0582   -2.4843   -4.5031 H         1 <0>         0.1380
     59 H24        -2.7295   -3.2454   -6.4314 H         1 <0>         0.1326
     60 H25        -6.1494   -2.8412   -8.9475 H         1 <0>         0.1335
     61 H26        -7.4802   -2.0881   -7.0175 H         1 <0>         0.1414
     62 H27        -3.6115   -4.6400   -9.0708 H         1 <0>         0.0801
     63 H28        -3.9305   -3.0969   -9.8986 H         1 <0>         0.0735
     64 H29        -2.5031   -3.2652   -8.8487 H         1 <0>         0.0734
     65 H30        -2.8867   -2.5134    1.7629 H         1 <0>         0.0770
     66 H31        -3.6881   -1.3031    0.7327 H         1 <0>         0.0819
     67 H32        -4.2073   -0.9892    3.0430 H         1 <0>         0.3879
@<TRIPOS>BOND
     1    1    2 1
     2    1   37 1
     3    1   38 1
     4    1   39 1
     5    2    3 1
     6    2   40 1
     7    2   41 1
     8    3    4 1
     9    3   42 1
    10    3   43 1
    11    4    5 1
    12    4   44 1
    13    4   45 1
    14    5    6 1
    15    5   46 1
    16    5   47 1
    17    6    7 1
    18    6   48 1
    19    6   49 1
    20    7    8 1
    21    7   33 am
    22    8    9 1
    23    8   10 1
    24    8   19 1
    25   10   15 ar
    26   10   11 ar
    27   11   12 ar
    28   11   18 1
    29   12   13 ar
    30   12   50 1
    31   13   14 ar
    32   13   17 1
    33   14   15 ar
    34   14   51 1
    35   15   16 1
    36   16   52 1
    37   17   53 1
    38   18   54 1
    39   19   20 2
    40   19   21 am
    41   21   22 1
    42   21   55 1
    43   22   23 1
    44   22   56 1
    45   22   57 1
    46   23   24 2
    47   23   25 2
    48   23   26 1
    49   26   31 ar
    50   26   27 ar
    51   27   28 ar
    52   27   58 1
    53   28   29 ar
    54   28   59 1
    55   29   30 ar
    56   29   32 1
    57   30   31 ar
    58   30   60 1
    59   31   61 1
    60   32   62 1
    61   32   63 1
    62   32   64 1
    63   33   34 2
    64   33   35 1
    65   35   36 1
    66   35   65 1
    67   35   66 1
    68   36   67 1
@<TRIPOS>MOLECULE
ZINC40174560
   57    59     0     0     0
SMALL
USER_CHARGES

@<TRIPOS>ATOM
      1 C1         -0.0187    1.5258    0.0104 C.3       1 <0>        -0.1537
      2 C2          0.0021   -0.0041    0.0020 C.3       1 <0>         0.0604
      3 O1         -1.3386   -0.4987    0.0122 O.3       1 <0>        -0.3420
      4 C3         -1.4964   -1.8317    0.0065 C.2       1 <0>         0.4862
      5 O2         -0.5283   -2.5546   -0.0066 O.2       1 <0>        -0.4895
      6 C4         -2.8809   -2.4266    0.0165 C.3       1 <0>        -0.1184
      7 S1         -2.7614   -4.2366    0.0057 S.3       1 <0>         0.0671
      8 C5         -4.4392   -4.7746    0.0188 C.2       1 <0>         0.1850
      9 N1         -5.4969   -4.0002    0.0273 N.2       1 <0>        -0.2915
     10 N2         -6.6331   -4.8197    0.0353 N.2       1 <0>        -0.3631
     11 C6         -6.2328   -6.0674    0.0313 C.2       1 <0>         0.5167
     12 N3         -4.8668   -6.0728    0.0159 N.pl3     1 <0>        -0.4915
     13 C7         -4.0106   -7.2614    0.0021 C.3       1 <0>         0.1214
     14 H1         -2.9644   -6.9555   -0.0056 H         1 <0>         0.1413
     15 C8         -4.3088   -8.0904   -1.2488 C.3       1 <0>        -0.1678
     16 C9         -4.2824   -8.0906    1.2308 C.2       1 <0>         0.4931
     17 O3         -5.1099   -7.7247    2.0384 O.2       1 <0>        -0.4693
     18 N4         -3.6059   -9.2388    1.4321 N.am      1 <0>        -0.6110
     19 C10        -3.8559  -10.0015    2.5624 C.2       1 <0>         0.0319
     20 C11        -3.2567  -11.1945    2.9306 C.2       1 <0>        -0.2241
     21 C12        -3.7071  -11.7908    4.1755 C.2       1 <0>        -0.0248
     22 C13        -4.6721  -11.1003    4.8368 C.2       1 <0>        -0.2356
     23 S2         -4.9471   -9.6839    3.7958 S.3       1 <0>         0.2998
     24 C14        -3.1524  -13.0658    4.6893 C.ar      1 <0>        -0.0426
     25 C15        -3.0676  -14.1790    3.8542 C.ar      1 <0>        -0.1019
     26 C16        -2.5499  -15.3631    4.3379 C.ar      1 <0>        -0.1190
     27 C17        -2.1157  -15.4470    5.6487 C.ar      1 <0>        -0.0797
     28 C18        -2.1973  -14.3458    6.4820 C.ar      1 <0>        -0.1183
     29 C19        -2.7080  -13.1547    6.0077 C.ar      1 <0>        -0.0942
     30 C20        -1.5522  -16.7434    6.1712 C.3       1 <0>        -0.1179
     31 C21        -2.2218  -11.8229    2.1062 C.2       1 <0>         0.5866
     32 O4         -1.0496  -11.5497    2.2881 O.2       1 <0>        -0.5248
     33 N5         -2.5674  -12.7035    1.1462 N.am      1 <0>        -0.8497
     34 N6         -7.0535   -7.1879    0.0367 N.pl3     1 <0>        -0.8208
     35 H2          1.0039    1.9031    0.0027 H         1 <0>         0.0829
     36 H3         -0.5459    1.8868   -0.8726 H         1 <0>         0.0687
     37 H4         -0.5289    1.8773    0.9072 H         1 <0>         0.0687
     38 H5          0.5123   -0.3556   -0.8948 H         1 <0>         0.0721
     39 H6          0.5293   -0.3651    0.8851 H         1 <0>         0.0721
     40 H7         -3.4091   -2.1027    0.9134 H         1 <0>         0.1414
     41 H8         -3.4261   -2.0931   -0.8665 H         1 <0>         0.1418
     42 H9         -4.1122   -7.4906   -2.1375 H         1 <0>         0.0941
     43 H10        -3.6717   -8.9747   -1.2590 H         1 <0>         0.0906
     44 H11        -5.3550   -8.3963   -1.2410 H         1 <0>         0.0744
     45 H12        -2.9441   -9.5314    0.7862 H         1 <0>         0.4217
     46 H13        -5.1534  -11.3491    5.7711 H         1 <0>         0.1921
     47 H14        -3.4069  -14.1148    2.8309 H         1 <0>         0.1211
     48 H15        -2.4837  -16.2262    3.6920 H         1 <0>         0.1237
     49 H16        -1.8572  -14.4172    7.5045 H         1 <0>         0.1259
     50 H17        -2.7670  -12.2943    6.6578 H         1 <0>         0.1258
     51 H18        -0.4753  -16.7649    6.0042 H         1 <0>         0.0723
     52 H19        -1.7559  -16.8240    7.2390 H         1 <0>         0.0680
     53 H20        -2.0178  -17.5789    5.6484 H         1 <0>         0.0673
     54 H21        -3.5015  -12.9211    1.0012 H         1 <0>         0.4023
     55 H22        -1.8821  -13.1196    0.6002 H         1 <0>         0.4050
     56 H23        -8.0178   -7.0828    0.0437 H         1 <0>         0.4266
     57 H24        -6.6624   -8.0756    0.0335 H         1 <0>         0.4034
@<TRIPOS>BOND
     1    1    2 1
     2    1   35 1
     3    1   36 1
     4    1   37 1
     5    2    3 1
     6    2   38 1
     7    2   39 1
     8    3    4 1
     9    4    5 2
    10    4    6 1
    11    6    7 1
    12    6   40 1
    13    6   41 1
    14    7    8 1
    15    8   12 1
    16    8    9 2
    17    9   10 1
    18   10   11 2
    19   11   12 1
    20   11   34 1
    21   12   13 1
    22   13   14 1
    23   13   15 1
    24   13   16 1
    25   15   42 1
    26   15   43 1
    27   15   44 1
    28   16   17 2
    29   16   18 am
    30   18   19 1
    31   18   45 1
    32   19   23 1
    33   19   20 2
    34   20   21 1
    35   20   31 1
    36   21   22 2
    37   21   24 1
    38   22   23 1
    39   22   46 1
    40   24   29 ar
    41   24   25 ar
    42   25   26 ar
    43   25   47 1
    44   26   27 ar
    45   26   48 1
    46   27   28 ar
    47   27   30 1
    48   28   29 ar
    49   28   49 1
    50   29   50 1
    51   30   51 1
    52   30   52 1
    53   30   53 1
    54   31   32 2
    55   31   33 am
    56   33   54 1
    57   33   55 1
    58   34   56 1
    59   34   57 1
@<TRIPOS>MOLECULE
ZINC04222415
   80    84     0     0     0
SMALL
USER_CHARGES
4-fluoro-N-[hydroxy-(hydroxymethyl)-dimethyl-(2-morpholinoethylcarbamoylmethyl)BLAHyl]-benzamide
@<TRIPOS>ATOM
      1 C1          2.3372    3.5765    2.4121 C.3       1 <0>        -0.1692
      2 C2          3.2079    3.2226    1.2048 C.3       1 <0>        -0.0471
      3 C3          3.4736    1.7136    1.1880 C.3       1 <0>        -0.1098
      4 C4          2.1641    0.9444    1.0277 C.3       1 <0>        -0.1585
      5 C5          1.5166    1.3449   -0.3013 C.3       1 <0>         0.1193
      6 H1          2.2012    1.1329   -1.1226 H         1 <0>         0.0526
      7 C6          1.2072    2.8403   -0.2655 C.3       1 <0>        -0.0429
      8 C7          2.4968    3.6466   -0.0823 C.3       1 <0>        -0.0536
      9 H2          3.1548    3.4959   -0.9380 H         1 <0>         0.0885
     10 C8          2.0939    5.1297    0.0342 C.3       1 <0>        -0.0402
     11 C9          3.2516    5.9066    0.5534 C.2       1 <0>        -0.2274
     12 C10         4.3799    5.4256    1.1362 C.2       1 <0>         0.0885
     13 N1          5.2721    6.3361    1.5194 N.2       1 <0>        -0.5174
     14 C11         5.0770    7.6269    1.3451 C.2       1 <0>         0.2699
     15 S1          3.5174    7.6591    0.5777 S.3       1 <0>         0.1690
     16 N2          5.9043    8.6890    1.6865 N.am      1 <0>        -0.6068
     17 C12         5.5213    9.9538    1.4215 C.2       1 <0>         0.5633
     18 O1          4.4516   10.1649    0.8837 O.2       1 <0>        -0.4885
     19 C13         6.4010   11.0831    1.7845 C.ar      1 <0>        -0.1494
     20 C14         7.6278   10.8436    2.4077 C.ar      1 <0>        -0.0557
     21 C15         8.4470   11.9011    2.7399 C.ar      1 <0>        -0.1618
     22 C16         8.0505   13.2013    2.4662 C.ar      1 <0>         0.1390
     23 C17         6.8312   13.4450    1.8524 C.ar      1 <0>        -0.1561
     24 C18         6.0065   12.3947    1.5111 C.ar      1 <0>        -0.0180
     25 F1          8.8548   14.2345    2.7991 F         1 <0>        -0.1265
     26 C19         4.5666    3.9269    1.3160 C.3       1 <0>         0.0215
     27 H3          5.2357    3.5491    0.5430 H         1 <0>         0.0955
     28 C20         5.1723    3.6510    2.6937 C.3       1 <0>        -0.1317
     29 C21         6.5853    4.1734    2.7349 C.2       1 <0>         0.5215
     30 O2          7.0610    4.7132    1.7586 O.2       1 <0>        -0.4846
     31 N3          7.3203    4.0406    3.8568 N.am      1 <0>        -0.7440
     32 C22         8.6939    4.5485    3.8969 C.3       1 <0>         0.1004
     33 C23         9.2996    4.2725    5.2746 C.3       1 <0>        -0.0169
     34 C24        11.5451    4.0256    4.4005 C.3       1 <0>        -0.0447
     35 C25        12.9532    4.6259    4.4292 C.3       1 <0>         0.0354
     36 O3         13.4428    4.6161    5.7729 O.3       1 <0>        -0.3555
     37 C26        12.6217    5.3438    6.6902 C.3       1 <0>         0.0345
     38 C27        11.2102    4.7508    6.6845 C.3       1 <0>        -0.0377
     39 C28         0.5399    3.2509   -1.5796 C.3       1 <0>        -0.1394
     40 C29         0.2574    3.1331    0.8978 C.3       1 <0>         0.0595
     41 O4         -1.0113    2.5278    0.6407 O.3       1 <0>        -0.5498
     42 O5          0.3053    0.6093   -0.4851 O.3       1 <0>        -0.5392
     43 H4          1.7867    2.6928    2.7346 H         1 <0>         0.0737
     44 H5          2.9709    3.9273    3.2267 H         1 <0>         0.0578
     45 H6          1.6338    4.3617    2.1350 H         1 <0>         0.0712
     46 H7          4.1368    1.4735    0.3570 H         1 <0>         0.0682
     47 H8          3.9514    1.4212    2.1231 H         1 <0>         0.0684
     48 H9          1.4927    1.1907    1.8503 H         1 <0>         0.0788
     49 H10         2.3671   -0.1265    1.0272 H         1 <0>         0.0687
     50 H11         1.8110    5.5091   -0.9477 H         1 <0>         0.0883
     51 H12         1.2526    5.2264    0.7204 H         1 <0>         0.0958
     52 H13         6.7578    8.5205    2.1156 H         1 <0>         0.4179
     53 H14         7.9356    9.8316    2.6254 H         1 <0>         0.1321
     54 H15         9.3977   11.7169    3.2181 H         1 <0>         0.1450
     55 H16         6.5274   14.4596    1.6412 H         1 <0>         0.1518
     56 H17         5.0572   12.5856    1.0328 H         1 <0>         0.1537
     57 H18         4.5778    4.1504    3.4586 H         1 <0>         0.1012
     58 H19         5.1764    2.5771    2.8803 H         1 <0>         0.1013
     59 H20         6.9398    3.6088    4.6377 H         1 <0>         0.4039
     60 H21         9.2884    4.0490    3.1320 H         1 <0>         0.0847
     61 H22         8.6898    5.6223    3.7103 H         1 <0>         0.0837
     62 H23         8.7051    4.7720    6.0395 H         1 <0>         0.1372
     63 H24         9.3036    3.1986    5.4612 H         1 <0>         0.1389
     64 H25        11.5872    2.9835    4.7171 H         1 <0>         0.1426
     65 H26        11.1454    4.0833    3.3881 H         1 <0>         0.1428
     66 H27        12.9191    5.6515    4.0617 H         1 <0>         0.0821
     67 H28        13.6143    4.0337    3.7966 H         1 <0>         0.1432
     68 H29        12.5780    6.3903    6.3885 H         1 <0>         0.0817
     69 H30        13.0428    5.2715    7.6930 H         1 <0>         0.1432
     70 H31        10.5661    5.3378    7.3392 H         1 <0>         0.1421
     71 H32        11.2470    3.7202    7.0376 H         1 <0>         0.1419
     72 H33        -0.3858    2.6900   -1.7078 H         1 <0>         0.0785
     73 H34         0.3181    4.3179   -1.5565 H         1 <0>         0.0535
     74 H35         1.2122    3.0375   -2.4107 H         1 <0>         0.0507
     75 H36         0.6745    2.7257    1.8187 H         1 <0>         0.0696
     76 H37         0.1315    4.2108    1.0015 H         1 <0>         0.0435
     77 H38        -1.6648    2.6728    1.3385 H         1 <0>         0.3700
     78 H39         0.4284   -0.3493   -0.5173 H         1 <0>         0.3702
     79 N4         10.6779    4.8077    5.3070 N.4       1 <0>        -0.3924
     80 H40        10.6636    5.7857    4.9945 H         1 <0>         0.4284
@<TRIPOS>BOND
     1    1    2 1
     2    1   43 1
     3    1   44 1
     4    1   45 1
     5    2    8 1
     6    2   26 1
     7    2    3 1
     8    3    4 1
     9    3   46 1
    10    3   47 1
    11    4    5 1
    12    4   48 1
    13    4   49 1
    14    5    6 1
    15    5    7 1
    16    5   42 1
    17    7    8 1
    18    7   39 1
    19    7   40 1
    20    8    9 1
    21    8   10 1
    22   10   11 1
    23   10   50 1
    24   10   51 1
    25   11   15 1
    26   11   12 2
    27   12   13 1
    28   12   26 1
    29   13   14 2
    30   14   15 1
    31   14   16 1
    32   16   17 am
    33   16   52 1
    34   17   18 2
    35   17   19 1
    36   19   24 ar
    37   19   20 ar
    38   20   21 ar
    39   20   53 1
    40   21   22 ar
    41   21   54 1
    42   22   23 ar
    43   22   25 1
    44   23   24 ar
    45   23   55 1
    46   24   56 1
    47   26   27 1
    48   26   28 1
    49   28   29 1
    50   28   57 1
    51   28   58 1
    52   29   30 2
    53   29   31 am
    54   31   32 1
    55   31   59 1
    56   32   33 1
    57   32   60 1
    58   32   61 1
    59   33   62 1
    60   33   63 1
    61   33   79 1
    62   34   35 1
    63   34   64 1
    64   34   65 1
    65   34   79 1
    66   35   36 1
    67   35   66 1
    68   35   67 1
    69   36   37 1
    70   37   38 1
    71   37   68 1
    72   37   69 1
    73   38   70 1
    74   38   71 1
    75   38   79 1
    76   39   72 1
    77   39   73 1
    78   39   74 1
    79   40   41 1
    80   40   75 1
    81   40   76 1
    82   41   77 1
    83   42   78 1
    84   79   80 1
@<TRIPOS>MOLECULE
ZINC08416873
   60    63     0     0     0
SMALL
USER_CHARGES
amino-(1,1-dimethylpropyl)-N-(4-sulfamoylphenyl)-BLAHcarboxamide
@<TRIPOS>ATOM
      1 C1          2.9486    5.5309    0.5146 C.3       1 <0>        -0.1579
      2 C2          2.9260    4.0228    0.2581 C.3       1 <0>        -0.1160
      3 C3          1.4799    3.5234    0.2800 C.3       1 <0>        -0.0569
      4 C4          0.6770    4.2380   -0.8088 C.3       1 <0>        -0.1507
      5 C5          0.8594    3.8176    1.6473 C.3       1 <0>        -0.1478
      6 C6          1.4572    2.0152    0.0235 C.3       1 <0>        -0.0780
      7 H1          2.0362    1.5029    0.7919 H         1 <0>         0.0776
      8 C7          0.0100    1.5096    0.0444 C.3       1 <0>        -0.1194
      9 C8          0.0329   -0.0174    0.0333 C.3       1 <0>        -0.0736
     10 C9          0.9077   -0.5262   -1.0832 C.ar      1 <0>         0.1983
     11 C10         1.8410    0.2718   -1.7184 C.ar      1 <0>        -0.1349
     12 C11         2.6214   -0.2506   -2.7323 C.ar      1 <0>        -0.0107
     13 C12         2.4564   -1.6017   -3.1160 C.ar      1 <0>        -0.1938
     14 C13         3.1605   -2.3510   -4.1452 C.2       1 <0>         0.3198
     15 C14         2.8210   -3.6719   -4.3396 C.2       1 <0>        -0.3608
     16 S1          1.5363   -3.9493   -3.1363 S.3       1 <0>         0.1050
     17 C15         1.4744   -2.3311   -2.4079 C.ar      1 <0>         0.1430
     18 N1          0.7576   -1.7915   -1.4500 N.ar      1 <0>        -0.4580
     19 C16         3.3630   -4.5898   -5.2733 C.2       1 <0>         0.6266
     20 O1          4.2460   -4.2352   -6.0335 O.2       1 <0>        -0.5325
     21 N2          2.9014   -5.8551   -5.3200 N.am      1 <0>        -0.6733
     22 C17         3.3666   -6.7332   -6.3038 C.ar      1 <0>         0.2129
     23 C18         2.5121   -7.6821   -6.8502 C.ar      1 <0>        -0.1681
     24 C19         2.9735   -8.5447   -7.8251 C.ar      1 <0>         0.0034
     25 C20         4.2874   -8.4714   -8.2498 C.ar      1 <0>        -0.6948
     26 C21         5.1422   -7.5312   -7.7041 C.ar      1 <0>         0.0016
     27 C22         4.6858   -6.6622   -6.7326 C.ar      1 <0>        -0.1443
     28 S2          4.8736   -9.5778   -9.4895 S.o2      1 <0>         2.7033
     29 O2          3.7355   -9.9997  -10.2283 O.2       1 <0>        -0.9643
     30 O3          5.9890   -8.9463  -10.1030 O.2       1 <0>        -0.9638
     31 N3          5.4573  -10.9187   -8.7125 N.pl3     1 <0>        -1.2504
     32 N4          4.1492   -1.7503   -4.9119 N.pl3     1 <0>        -0.8194
     33 C23         2.0514    1.7183   -1.3516 C.3       1 <0>        -0.0754
     34 H2          2.3766    6.0401   -0.2611 H         1 <0>         0.0572
     35 H3          2.5066    5.7405    1.4887 H         1 <0>         0.0575
     36 H4          3.9788    5.8867    0.4990 H         1 <0>         0.0516
     37 H5          3.4979    3.5136    1.0338 H         1 <0>         0.0615
     38 H6          3.3680    3.8132   -0.7159 H         1 <0>         0.0623
     39 H7         -0.3532    3.8823   -0.7932 H         1 <0>         0.0582
     40 H8          0.6932    5.3125   -0.6261 H         1 <0>         0.0593
     41 H9          1.1191    4.0285   -1.7829 H         1 <0>         0.0566
     42 H10         1.4314    3.3085    2.4230 H         1 <0>         0.0551
     43 H11         0.8756    4.8920    1.8300 H         1 <0>         0.0596
     44 H12        -0.1708    3.4618    1.6629 H         1 <0>         0.0592
     45 H13        -0.5194    1.8752   -0.8354 H         1 <0>         0.0722
     46 H14        -0.4892    1.8626    0.9468 H         1 <0>         0.0844
     47 H15         0.4202   -0.3781    0.9862 H         1 <0>         0.0936
     48 H16        -0.9815   -0.3911   -0.1069 H         1 <0>         0.0937
     49 H17         3.3534    0.3693   -3.2284 H         1 <0>         0.1379
     50 H18         2.2465   -6.1567   -4.6711 H         1 <0>         0.4151
     51 H19         1.4870   -7.7429   -6.5157 H         1 <0>         0.1393
     52 H20         2.3084   -9.2801   -8.2533 H         1 <0>         0.1481
     53 H21         6.1678   -7.4763   -8.0383 H         1 <0>         0.1468
     54 H22         5.3538   -5.9280   -6.3071 H         1 <0>         0.1516
     55 H23         5.4273  -10.9698   -7.7443 H         1 <0>         0.4167
     56 H24         5.8291  -11.6531   -9.2256 H         1 <0>         0.4209
     57 H25         4.3785   -0.8193   -4.7647 H         1 <0>         0.4011
     58 H26         4.6109   -2.2613   -5.5949 H         1 <0>         0.4247
     59 H27         3.1199    1.9333   -1.3355 H         1 <0>         0.0809
     60 H28         1.5685    2.3518   -2.0957 H         1 <0>         0.0881
@<TRIPOS>BOND
     1    1    2 1
     2    1   34 1
     3    1   35 1
     4    1   36 1
     5    2    3 1
     6    2   37 1
     7    2   38 1
     8    3    4 1
     9    3    5 1
    10    3    6 1
    11    4   39 1
    12    4   40 1
    13    4   41 1
    14    5   42 1
    15    5   43 1
    16    5   44 1
    17    6    7 1
    18    6   33 1
    19    6    8 1
    20    8    9 1
    21    8   45 1
    22    8   46 1
    23    9   10 1
    24    9   47 1
    25    9   48 1
    26   10   18 ar
    27   10   11 ar
    28   11   12 ar
    29   11   33 1
    30   12   13 ar
    31   12   49 1
    32   13   17 ar
    33   13   14 1
    34   14   15 2
    35   14   32 1
    36   15   16 1
    37   15   19 1
    38   16   17 1
    39   17   18 ar
    40   19   20 2
    41   19   21 am
    42   21   22 1
    43   21   50 1
    44   22   27 ar
    45   22   23 ar
    46   23   24 ar
    47   23   51 1
    48   24   25 ar
    49   24   52 1
    50   25   26 ar
    51   25   28 1
    52   26   27 ar
    53   26   53 1
    54   27   54 1
    55   28   29 2
    56   28   30 2
    57   28   31 1
    58   31   55 1
    59   31   56 1
    60   32   57 1
    61   32   58 1
    62   33   59 1
    63   33   60 1
@<TRIPOS>MOLECULE
ZINC12902057
   62    68     0     0     0
SMALL
USER_CHARGES
(1S,3R,3aR,6aS)-1-[(5-hydroxy-1H-indol-3-yl)methyl]-5'-methyl-5-phenyl-spiro[1,2,3a,6a-tetrahydropyrrolo[4,3-c]pyrrole-3,3'-indoline]-2',4,6-trione
@<TRIPOS>ATOM
      1 C1          5.9657   -0.5538   -6.3481 C.3       1 <0>        -0.1224
      2 C2          4.7306   -1.2653   -5.8590 C.ar      1 <0>        -0.0863
      3 C3          3.6170   -1.3605   -6.6735 C.ar      1 <0>        -0.0465
      4 C4          2.4833   -2.0091   -6.2308 C.ar      1 <0>        -0.1178
      5 C5          2.4510   -2.5739   -4.9579 C.ar      1 <0>         0.1651
      6 C6          3.5779   -2.4730   -4.1476 C.ar      1 <0>        -0.1926
      7 C7          4.7078   -1.8246   -4.5936 C.ar      1 <0>        -0.0451
      8 C8          3.2255   -3.1719   -2.8651 C.3       1 <0>         0.0925
      9 C9          4.1805   -4.3382   -2.5809 C.3       1 <0>        -0.1179
     10 H1          4.6430   -4.7318   -3.4860 H         1 <0>         0.1848
     11 C10         5.2157   -3.7591   -1.5765 C.3       1 <0>        -0.1355
     12 H2          6.2419   -3.8366   -1.9355 H         1 <0>         0.1873
     13 C11         4.7748   -2.2974   -1.3513 C.3       1 <0>         0.0446
     14 H3          5.3278   -1.6286   -2.0109 H         1 <0>         0.1707
     15 C12         4.9864   -1.8968    0.1101 C.3       1 <0>        -0.0549
     16 C13         4.6664   -0.4341    0.2814 C.2       1 <0>        -0.2325
     17 C14         5.5411    0.5837    0.2472 C.2       1 <0>         0.1095
     18 N1          4.8858    1.7688    0.4414 N.pl3     1 <0>        -0.5831
     19 H4          5.3069    2.6424    0.4578 H         1 <0>         0.4269
     20 C15         3.5370    1.5360    0.6098 C.ar      1 <0>         0.0917
     21 C16         3.3421    0.1461    0.5168 C.ar      1 <0>        -0.0946
     22 C17         2.0593   -0.3892    0.6498 C.ar      1 <0>        -0.1418
     23 C18         0.9883    0.4533    0.8725 C.ar      1 <0>         0.1084
     24 C19         1.1846    1.8286    0.9645 C.ar      1 <0>        -0.1193
     25 C20         2.4453    2.3675    0.8349 C.ar      1 <0>        -0.0923
     26 O1         -0.2633   -0.0623    1.0028 O.3       1 <0>        -0.4925
     27 C21         4.9798   -4.5530   -0.3121 C.2       1 <0>         0.5205
     28 O2          5.5855   -4.4095    0.7282 O.2       1 <0>        -0.4179
     29 N2          3.9842   -5.4403   -0.5389 N.am      1 <0>        -0.5214
     30 C22         3.4743   -5.4057   -1.7754 C.2       1 <0>         0.5137
     31 O3          2.5842   -6.1189   -2.1861 O.2       1 <0>        -0.4067
     32 C23         3.5290   -6.3301    0.4443 C.ar      1 <0>         0.0914
     33 C24         2.8670   -5.8484    1.5655 C.ar      1 <0>        -0.0970
     34 C25         2.4143   -6.7279    2.5294 C.ar      1 <0>        -0.1042
     35 C26         2.6303   -8.0860    2.3844 C.ar      1 <0>        -0.0951
     36 C27         3.2949   -8.5682    1.2718 C.ar      1 <0>        -0.1032
     37 C28         3.7445   -7.6941    0.3015 C.ar      1 <0>        -0.0950
     38 C29         1.8130   -3.6516   -3.0564 C.2       1 <0>         0.5240
     39 O4          1.1418   -4.2654   -2.2540 O.2       1 <0>        -0.4226
     40 N3          1.4383   -3.2681   -4.2922 N.am      1 <0>        -0.6395
     41 H5          5.9067    0.5014   -6.0816 H         1 <0>         0.0806
     42 H6          6.8475   -0.9967   -5.8852 H         1 <0>         0.0748
     43 H7          6.0362   -0.6515   -7.4315 H         1 <0>         0.0791
     44 H8          3.6352   -0.9243   -7.6614 H         1 <0>         0.1490
     45 H9          1.6177   -2.0791   -6.8728 H         1 <0>         0.1457
     46 H10         5.5762   -1.7523   -3.9556 H         1 <0>         0.1382
     47 H11         6.0245   -2.0768    0.3895 H         1 <0>         0.1380
     48 H12         4.3305   -2.4893    0.7479 H         1 <0>         0.0938
     49 H13         6.6047    0.4820    0.0897 H         1 <0>         0.1818
     50 H14         1.9057   -1.4559    0.5786 H         1 <0>         0.1140
     51 H15         0.3396    2.4793    1.1347 H         1 <0>         0.1414
     52 H16         2.5862    3.4357    0.9081 H         1 <0>         0.1344
     53 H17        -0.7473   -0.1357    0.1689 H         1 <0>         0.3922
     54 H18         2.7019   -4.7874    1.6814 H         1 <0>         0.1221
     55 H19         1.8952   -6.3542    3.3997 H         1 <0>         0.1372
     56 H20         2.2790   -8.7715    3.1415 H         1 <0>         0.1364
     57 H21         3.4622   -9.6294    1.1612 H         1 <0>         0.1378
     58 H22         4.2629   -8.0713   -0.5676 H         1 <0>         0.1274
     59 H23         0.5665   -3.4528   -4.6753 H         1 <0>         0.4377
     60 N4          3.3552   -2.2986   -1.7062 N.4       1 <0>        -0.4959
     61 H24         2.7936   -2.6579   -0.9253 H         1 <0>         0.4324
     62 H25         3.0464   -1.3478   -1.9407 H         1 <0>         0.4484
@<TRIPOS>BOND
     1    1    2 1
     2    1   41 1
     3    1   42 1
     4    1   43 1
     5    2    7 ar
     6    2    3 ar
     7    3    4 ar
     8    3   44 1
     9    4    5 ar
    10    4   45 1
    11    5   40 1
    12    5    6 ar
    13    6    7 ar
    14    6    8 1
    15    7   46 1
    16    8    9 1
    17    8   38 1
    18    8   60 1
    19    9   10 1
    20    9   30 1
    21    9   11 1
    22   11   12 1
    23   11   13 1
    24   11   27 1
    25   13   14 1
    26   13   15 1
    27   13   60 1
    28   15   16 1
    29   15   47 1
    30   15   48 1
    31   16   21 1
    32   16   17 2
    33   17   18 1
    34   17   49 1
    35   18   19 1
    36   18   20 1
    37   20   25 ar
    38   20   21 ar
    39   21   22 ar
    40   22   23 ar
    41   22   50 1
    42   23   24 ar
    43   23   26 1
    44   24   25 ar
    45   24   51 1
    46   25   52 1
    47   26   53 1
    48   27   28 2
    49   27   29 am
    50   29   30 am
    51   29   32 1
    52   30   31 2
    53   32   37 ar
    54   32   33 ar
    55   33   34 ar
    56   33   54 1
    57   34   35 ar
    58   34   55 1
    59   35   36 ar
    60   35   56 1
    61   36   37 ar
    62   36   57 1
    63   37   58 1
    64   38   39 2
    65   38   40 am
    66   40   59 1
    67   60   61 1
    68   60   62 1
@<TRIPOS>MOLECULE
ZINC36774439
   57    60     0     0     0
SMALL
USER_CHARGES

@<TRIPOS>ATOM
      1 C1          1.0497    1.2534   -0.1862 C.3       1 <0>        -0.1190
      2 C2          0.4373   -0.1203   -0.0923 C.ar      1 <0>        -0.0850
      3 C3         -0.1735   -0.6814   -1.1990 C.ar      1 <0>        -0.0317
      4 C4         -0.7362   -1.9417   -1.1171 C.ar      1 <0>        -0.6555
      5 C5         -0.6899   -2.6444    0.0712 C.ar      1 <0>        -0.0326
      6 C6         -0.0775   -2.0839    1.1842 C.ar      1 <0>         0.1305
      7 C7          0.4915   -0.8198    1.0971 C.ar      1 <0>        -0.0556
      8 C8          1.1622   -0.2100    2.3009 C.3       1 <0>        -0.1282
      9 N1         -0.0294   -2.7929    2.3895 N.am      1 <0>        -0.6619
     10 C9         -0.0993   -4.1388    2.3828 C.2       1 <0>         0.5340
     11 O1         -0.0983   -4.7409    1.3300 O.2       1 <0>        -0.4944
     12 C10        -0.1788   -4.8956    3.6836 C.3       1 <0>        -0.1573
     13 S1         -0.2611   -6.6756    3.3435 S.3       1 <0>         0.1116
     14 C11        -0.3487   -7.4114    4.9421 C.ar      1 <0>         0.3352
     15 N2         -0.3467   -6.6335    6.0185 N.ar      1 <0>        -0.5897
     16 C12        -0.4104   -7.1279    7.2430 C.ar      1 <0>         0.4990
     17 C13        -0.4833   -8.5382    7.4209 C.ar      1 <0>        -0.2366
     18 C14        -0.5585   -9.3005    8.6694 C.2       1 <0>        -0.0786
     19 C15        -0.6194  -10.6427    8.5637 C.2       1 <0>        -0.1472
     20 S2         -0.5813  -10.9720    6.8221 S.3       1 <0>         0.1227
     21 C16        -0.4818   -9.3006    6.2363 C.ar      1 <0>         0.1530
     22 N3         -0.4207   -8.7316    5.0477 N.ar      1 <0>        -0.4879
     23 C17        -0.7007  -11.6386    9.6804 C.3       1 <0>        -0.0363
     24 C18        -0.3300  -10.9291   10.9905 C.3       1 <0>        -0.0864
     25 H1          0.7402  -10.7225   11.0044 H         1 <0>         0.0773
     26 C19        -1.1085   -9.6128   11.0727 C.3       1 <0>        -0.1161
     27 C20        -0.5683   -8.6249   10.0380 C.3       1 <0>        -0.0691
     28 C21        -0.6960  -11.8209   12.1787 C.3       1 <0>        -0.1482
     29 N4         -0.4057   -6.2843    8.3389 N.pl3     1 <0>        -0.8444
     30 S3         -1.5136   -2.6519   -2.5299 S.o2      1 <0>         2.7015
     31 O2         -2.4409   -3.6124   -2.0432 O.2       1 <0>        -0.9581
     32 O3         -1.9044   -1.5706   -3.3649 O.2       1 <0>        -0.9628
     33 N5         -0.3515   -3.4929   -3.3573 N.pl3     1 <0>        -1.2480
     34 H2          2.0913    1.1665   -0.4955 H         1 <0>         0.0770
     35 H3          0.5016    1.8463   -0.9184 H         1 <0>         0.0750
     36 H4          0.9993    1.7410    0.7873 H         1 <0>         0.0733
     37 H5         -0.2113   -0.1339   -2.1292 H         1 <0>         0.1458
     38 H6         -1.1300   -3.6287    0.1347 H         1 <0>         0.1663
     39 H7          0.4299    0.3549    2.8777 H         1 <0>         0.0824
     40 H8          1.5823   -1.0008    2.9223 H         1 <0>         0.0695
     41 H9          1.9597    0.4571    1.9735 H         1 <0>         0.0835
     42 H10         0.0544   -2.3157    3.2299 H         1 <0>         0.4166
     43 H11         0.7056   -4.6809    4.2835 H         1 <0>         0.1293
     44 H12        -1.0712   -4.5883    4.2289 H         1 <0>         0.1309
     45 H13        -1.7154  -12.0305    9.7496 H         1 <0>         0.0888
     46 H14        -0.0031  -12.4555    9.4953 H         1 <0>         0.0865
     47 H15        -2.1636   -9.8031   10.8758 H         1 <0>         0.0690
     48 H16        -0.9982   -9.1884   12.0706 H         1 <0>         0.0735
     49 H17         0.4462   -8.3312   10.3075 H         1 <0>         0.0784
     50 H18        -1.2091   -7.7437   10.0057 H         1 <0>         0.0818
     51 H19        -0.1495  -12.7614   12.1090 H         1 <0>         0.0593
     52 H20        -0.4320  -11.3152   13.1075 H         1 <0>         0.0597
     53 H21        -1.7673  -12.0214   12.1660 H         1 <0>         0.0581
     54 H22        -0.8362   -5.4167    8.2849 H         1 <0>         0.4084
     55 H23         0.0280   -6.5601    9.1615 H         1 <0>         0.4137
     56 H24         0.5593   -3.5167   -3.0245 H         1 <0>         0.4174
     57 H25        -0.5816   -3.9616   -4.1748 H         1 <0>         0.4216
@<TRIPOS>BOND
     1    1    2 1
     2    1   34 1
     3    1   35 1
     4    1   36 1
     5    2    7 ar
     6    2    3 ar
     7    3    4 ar
     8    3   37 1
     9    4    5 ar
    10    4   30 1
    11    5    6 ar
    12    5   38 1
    13    6    7 ar
    14    6    9 1
    15    7    8 1
    16    8   39 1
    17    8   40 1
    18    8   41 1
    19    9   10 am
    20    9   42 1
    21   10   11 2
    22   10   12 1
    23   12   13 1
    24   12   43 1
    25   12   44 1
    26   13   14 1
    27   14   22 ar
    28   14   15 ar
    29   15   16 ar
    30   16   17 ar
    31   16   29 1
    32   17   21 ar
    33   17   18 1
    34   18   27 1
    35   18   19 2
    36   19   20 1
    37   19   23 1
    38   20   21 1
    39   21   22 ar
    40   23   24 1
    41   23   45 1
    42   23   46 1
    43   24   25 1
    44   24   26 1
    45   24   28 1
    46   26   27 1
    47   26   47 1
    48   26   48 1
    49   27   49 1
    50   27   50 1
    51   28   51 1
    52   28   52 1
    53   28   53 1
    54   29   54 1
    55   29   55 1
    56   30   31 2
    57   30   32 2
    58   30   33 1
    59   33   56 1
    60   33   57 1
@<TRIPOS>MOLECULE
ZINC40782367
   40    42     0     0     0
SMALL
USER_CHARGES

@<TRIPOS>ATOM
      1 C1          0.0310    1.3270    0.8042 C.ar      1 <0>        -0.0411
      2 C2          1.2153    2.0326    0.7735 C.ar      1 <0>        -0.1163
      3 C3          2.4088    1.3772    0.5190 C.ar      1 <0>        -0.0076
      4 C4          2.4205    0.0105    0.2941 C.ar      1 <0>        -0.1149
      5 C5          1.2426   -0.7059    0.3228 C.ar      1 <0>        -0.0718
      6 C6          0.0365   -0.0508    0.5787 C.ar      1 <0>        -0.1256
      7 C7         -1.2293   -0.8128    0.6104 C.2       1 <0>         0.5595
      8 O1         -2.2782   -0.2400    0.8330 O.2       1 <0>        -0.5368
      9 N1         -1.2210   -2.1428    0.3923 N.am      1 <0>        -0.5040
     10 N2         -2.4210   -2.8651    0.4223 N.pl3     1 <0>        -0.5106
     11 C8         -2.4123   -4.2365    0.1975 C.ar      1 <0>         0.4048
     12 C9         -3.6028   -4.9661    0.2191 C.ar      1 <0>         0.0185
     13 C10        -3.5376   -6.3408   -0.0134 C.ar      1 <0>         0.3948
     14 N3         -2.3519   -6.8999   -0.2453 N.ar      1 <0>        -0.5550
     15 C11        -1.2520   -6.1749   -0.2570 C.ar      1 <0>         0.3321
     16 N4         -1.2702   -4.8739   -0.0472 N.ar      1 <0>        -0.5744
     17 N5         -4.6930   -7.1143   -0.0027 N.pl3     1 <0>        -0.6550
     18 C12        -4.6044   -8.5045   -0.1167 C.ar      1 <0>         0.1864
     19 C13        -5.5756   -9.2088   -0.8170 C.ar      1 <0>        -0.1497
     20 C14        -5.4853  -10.5823   -0.9278 C.ar      1 <0>        -0.0627
     21 C15        -4.4292  -11.2570   -0.3419 C.ar      1 <0>        -0.1194
     22 C16        -3.4606  -10.5586    0.3566 C.ar      1 <0>        -0.0634
     23 C17        -3.5418   -9.1843    0.4653 C.ar      1 <0>        -0.1099
     24 I1         -4.2968  -13.3409   -0.5121 I         1 <0>        -0.0461
     25 N6         -4.8317   -4.3342    0.4684 N.pl3     1 <0>        -0.8741
     26 Cl1         3.8957    2.2724    0.4813 Cl        1 <0>        -0.0553
     27 H1         -0.8984    1.8384    1.0068 H         1 <0>         0.1489
     28 H2          1.2123    3.0985    0.9477 H         1 <0>         0.1450
     29 H3          3.3540   -0.4949    0.0955 H         1 <0>         0.1447
     30 H4          1.2529   -1.7714    0.1469 H         1 <0>         0.1384
     31 H5         -0.3840   -2.5999    0.2146 H         1 <0>         0.4338
     32 H6         -3.2579   -2.4081    0.6000 H         1 <0>         0.4388
     33 H7         -0.3068   -6.6610   -0.4484 H         1 <0>         0.2017
     34 H8         -5.5605   -6.6891    0.0839 H         1 <0>         0.4158
     35 H9         -6.4007   -8.6827   -1.2741 H         1 <0>         0.1307
     36 H10        -6.2400  -11.1304   -1.4722 H         1 <0>         0.1314
     37 H11        -2.6376  -11.0882    0.8132 H         1 <0>         0.1312
     38 H12        -2.7826   -8.6390    1.0063 H         1 <0>         0.1411
     39 H13        -4.8617   -3.3780    0.6287 H         1 <0>         0.3984
     40 H14        -5.6507   -4.8539    0.4804 H         1 <0>         0.3978
@<TRIPOS>BOND
     1    1    6 ar
     2    1    2 ar
     3    1   27 1
     4    2    3 ar
     5    2   28 1
     6    3    4 ar
     7    3   26 1
     8    4    5 ar
     9    4   29 1
    10    5    6 ar
    11    5   30 1
    12    6    7 1
    13    7    8 2
    14    7    9 am
    15    9   10 1
    16    9   31 1
    17   10   11 1
    18   10   32 1
    19   11   16 ar
    20   11   12 ar
    21   12   13 ar
    22   12   25 1
    23   13   14 ar
    24   13   17 1
    25   14   15 ar
    26   15   16 ar
    27   15   33 1
    28   17   18 1
    29   17   34 1
    30   18   23 ar
    31   18   19 ar
    32   19   20 ar
    33   19   35 1
    34   20   21 ar
    35   20   36 1
    36   21   22 ar
    37   21   24 1
    38   22   23 ar
    39   22   37 1
    40   23   38 1
    41   25   39 1
    42   25   40 1
@<TRIPOS>MOLECULE
ZINC03666976
   68    72     0     0     0
SMALL
USER_CHARGES
isobutyl [2-(1H-indol-3-yl)-1-[[4-(6-methylbenzothiazol-2-yl)phenyl]carbamoyl]ethyl]aminoformate
@<TRIPOS>ATOM
      1 C1         -4.0463   -7.9406   10.8950 C.3       1 <0>        -0.1149
      2 C2         -4.2948   -6.9032    9.8306 C.ar      1 <0>        -0.0588
      3 C3         -5.5103   -6.2353    9.7729 C.ar      1 <0>        -0.1120
      4 C4         -5.7635   -5.2937    8.8254 C.ar      1 <0>        -0.0554
      5 C5         -4.7878   -4.9594    7.8560 C.ar      1 <0>         0.0730
      6 C6         -3.5598   -5.6575    7.9406 C.ar      1 <0>        -0.1360
      7 C7         -3.3145   -6.6072    8.9018 C.ar      1 <0>        -0.0708
      8 S1         -2.6376   -4.9668    6.5884 S.3       1 <0>        -0.0069
      9 C8         -3.8957   -3.8340    6.0150 C.2       1 <0>         0.2081
     10 N1         -4.8773   -4.0533    6.8628 N.2       1 <0>        -0.5002
     11 C9         -3.8439   -2.8876    4.8813 C.ar      1 <0>        -0.0447
     12 C10        -4.9457   -2.0795    4.5936 C.ar      1 <0>        -0.0438
     13 C11        -4.8944   -1.1985    3.5357 C.ar      1 <0>        -0.1495
     14 C12        -3.7472   -1.1138    2.7546 C.ar      1 <0>         0.1763
     15 C13        -2.6503   -1.9209    3.0352 C.ar      1 <0>        -0.1201
     16 C14        -2.6931   -2.7998    4.0952 C.ar      1 <0>        -0.0625
     17 N2         -3.6988   -0.2202    1.6821 N.am      1 <0>        -0.6749
     18 C15        -2.5353    0.3752    1.3531 C.2       1 <0>         0.4970
     19 O1         -1.5528    0.2102    2.0448 O.2       1 <0>        -0.4751
     20 C16        -2.4551    1.2460    0.1258 C.3       1 <0>         0.1661
     21 H1         -3.3631    1.8434    0.0442 H         1 <0>         0.1193
     22 C17        -2.3112    0.3645   -1.1165 C.3       1 <0>        -0.0608
     23 C18        -2.3544    1.2265   -2.3519 C.2       1 <0>        -0.1707
     24 C19        -3.4338    1.4875   -3.1060 C.2       1 <0>         0.0574
     25 N3         -3.0899    2.3104   -4.1438 N.pl3     1 <0>        -0.5943
     26 H2         -3.7017    2.6379   -4.8215 H         1 <0>         0.4167
     27 C20        -1.7449    2.5995   -4.0861 C.ar      1 <0>         0.0944
     28 C21        -1.2251    1.9332   -2.9611 C.ar      1 <0>        -0.0935
     29 C22         0.1308    2.0466   -2.6493 C.ar      1 <0>        -0.0675
     30 C23         0.9476    2.8053   -3.4398 C.ar      1 <0>        -0.1422
     31 C24         0.4398    3.4641   -4.5508 C.ar      1 <0>        -0.0962
     32 C25        -0.8954    3.3661   -4.8767 C.ar      1 <0>        -0.1316
     33 N4         -1.2945    2.1336    0.2318 N.am      1 <0>        -0.6954
     34 C26        -0.0562    1.6134    0.3434 C.2       1 <0>         0.6591
     35 O2          0.0976    0.4082    0.3560 O.2       1 <0>        -0.5478
     36 O3          1.0110    2.4292    0.4352 O.3       1 <0>        -0.3690
     37 C27         2.3145    1.7994    0.5467 C.3       1 <0>         0.0932
     38 C28         3.3957    2.8780    0.6399 C.3       1 <0>        -0.0958
     39 C29         4.7547    2.2182    0.8823 C.3       1 <0>        -0.1469
     40 C30         3.4396    3.6704   -0.6682 C.3       1 <0>        -0.1480
     41 H3         -4.3571   -8.9189   10.5285 H         1 <0>         0.0774
     42 H4         -2.9841   -7.9643   11.1383 H         1 <0>         0.0712
     43 H5         -4.6181   -7.6889   11.7882 H         1 <0>         0.0731
     44 H6         -6.2742   -6.4693   10.4996 H         1 <0>         0.1350
     45 H7         -6.7210   -4.7943    8.8124 H         1 <0>         0.1340
     46 H8         -2.3635   -7.1182    8.9323 H         1 <0>         0.1344
     47 H9         -5.8373   -2.1453    5.1995 H         1 <0>         0.1408
     48 H10        -5.7463   -0.5732    3.3127 H         1 <0>         0.1360
     49 H11        -1.7623   -1.8559    2.4239 H         1 <0>         0.1465
     50 H12        -1.8393   -3.4235    4.3152 H         1 <0>         0.1315
     51 H13        -4.5025   -0.0281    1.1741 H         1 <0>         0.4126
     52 H14        -1.3601   -0.1665   -1.0770 H         1 <0>         0.1044
     53 H15        -3.1285   -0.3560   -1.1474 H         1 <0>         0.0859
     54 H16        -4.4269    1.1061   -2.9200 H         1 <0>         0.1706
     55 H17         0.5329    1.5365   -1.7865 H         1 <0>         0.1156
     56 H18         1.9964    2.8931   -3.1979 H         1 <0>         0.1204
     57 H19         1.0979    4.0599   -5.1660 H         1 <0>         0.1246
     58 H20        -1.2810    3.8832   -5.7429 H         1 <0>         0.1189
     59 H21        -1.4172    3.0958    0.2217 H         1 <0>         0.4115
     60 H22         2.3426    1.1785    1.4421 H         1 <0>         0.0707
     61 H23         2.4947    1.1792   -0.3313 H         1 <0>         0.0691
     62 H24         3.1665    3.5518    1.4654 H         1 <0>         0.0813
     63 H25         4.9838    1.5443    0.0568 H         1 <0>         0.0592
     64 H26         5.5249    2.9865    0.9487 H         1 <0>         0.0659
     65 H27         4.7234    1.6536    1.8142 H         1 <0>         0.0589
     66 H28         3.6688    2.9966   -1.4937 H         1 <0>         0.0546
     67 H29         2.4714    4.1405   -0.8409 H         1 <0>         0.0632
     68 H30         4.2099    4.4388   -0.6018 H         1 <0>         0.0571
@<TRIPOS>BOND
     1    1    2 1
     2    1   41 1
     3    1   42 1
     4    1   43 1
     5    2    7 ar
     6    2    3 ar
     7    3    4 ar
     8    3   44 1
     9    4    5 ar
    10    4   45 1
    11    5   10 1
    12    5    6 ar
    13    6    7 ar
    14    6    8 1
    15    7   46 1
    16    8    9 1
    17    9   10 2
    18    9   11 1
    19   11   16 ar
    20   11   12 ar
    21   12   13 ar
    22   12   47 1
    23   13   14 ar
    24   13   48 1
    25   14   15 ar
    26   14   17 1
    27   15   16 ar
    28   15   49 1
    29   16   50 1
    30   17   18 am
    31   17   51 1
    32   18   19 2
    33   18   20 1
    34   20   21 1
    35   20   22 1
    36   20   33 1
    37   22   23 1
    38   22   52 1
    39   22   53 1
    40   23   28 1
    41   23   24 2
    42   24   25 1
    43   24   54 1
    44   25   26 1
    45   25   27 1
    46   27   32 ar
    47   27   28 ar
    48   28   29 ar
    49   29   30 ar
    50   29   55 1
    51   30   31 ar
    52   30   56 1
    53   31   32 ar
    54   31   57 1
    55   32   58 1
    56   33   34 am
    57   33   59 1
    58   34   35 2
    59   34   36 1
    60   36   37 1
    61   37   38 1
    62   37   60 1
    63   37   61 1
    64   38   39 1
    65   38   40 1
    66   38   62 1
    67   39   63 1
    68   39   64 1
    69   39   65 1
    70   40   66 1
    71   40   67 1
    72   40   68 1
@<TRIPOS>MOLECULE
ZINC16790881
   55    56     0     0     0
SMALL
USER_CHARGES
N-[(1S)-2,2,2-trichloro-1-[[2-methyl-4-(o-tolylazo)phenyl]carbamothioylamino]ethyl]butanamide
@<TRIPOS>ATOM
      1 C1          0.0395   -5.0858   -0.9863 C.3       1 <0>        -0.1535
      2 C2         -0.6468   -3.7807   -0.5779 C.3       1 <0>        -0.1102
      3 C3          0.0647   -3.1902    0.6411 C.3       1 <0>        -0.1363
      4 C4         -0.6112   -1.9048    1.0433 C.2       1 <0>         0.5099
      5 O1         -1.5678   -1.5007    0.4167 O.2       1 <0>        -0.4749
      6 N1         -0.1527   -1.2041    2.0994 N.am      1 <0>        -0.7364
      7 C5         -0.8098    0.0455    2.4904 C.3       1 <0>         0.3591
      8 H1         -1.4571    0.3842    1.6815 H         1 <0>         0.1984
      9 C6          0.2501    1.1114    2.7759 C.3       1 <0>         0.1098
     10 Cl1         1.2370    1.3898    1.2929 Cl        1 <0>        -0.0490
     11 Cl2        -0.5586    2.6493    3.2571 Cl        1 <0>        -0.0575
     12 Cl3         1.3208    0.5511    4.1140 Cl        1 <0>        -0.0895
     13 N2         -1.6117   -0.1807    3.6954 N.pl3     1 <0>        -0.6934
     14 C7         -2.9541   -0.2614    3.6062 C.2       1 <0>         0.5478
     15 S1         -3.7221   -0.0995    2.0847 S.2       1 <0>        -0.5378
     16 N3         -3.6919   -0.4695    4.7147 N.pl3     1 <0>        -0.6257
     17 C8         -5.0848   -0.4392    4.6415 C.ar      1 <0>         0.1523
     18 C9         -5.7202    0.5708    3.9255 C.ar      1 <0>        -0.0720
     19 C10        -7.0942    0.6041    3.8505 C.ar      1 <0>        -0.0924
     20 C11        -7.8521   -0.3796    4.4953 C.ar      1 <0>         0.0588
     21 C12        -7.2095   -1.3931    5.2139 C.ar      1 <0>        -0.0520
     22 C13        -5.8346   -1.4222    5.2797 C.ar      1 <0>        -0.0909
     23 C14        -5.1410   -2.5169    6.0488 C.3       1 <0>        -0.1155
     24 N4         -9.2146   -0.3504    4.4229 N.2       1 <0>        -0.2176
     25 N5         -9.8054    0.5848    3.7594 N.2       1 <0>        -0.2014
     26 C15       -11.1702    0.6140    3.6869 C.ar      1 <0>         0.0376
     27 C16       -11.9288   -0.3678    4.3305 C.ar      1 <0>        -0.0902
     28 C17       -13.3051   -0.3317    4.2533 C.ar      1 <0>        -0.1343
     29 C18       -13.9355    0.6736    3.5408 C.ar      1 <0>        -0.0838
     30 C19       -13.1911    1.6490    2.9012 C.ar      1 <0>        -0.1307
     31 C20       -11.8139    1.6288    2.9739 C.ar      1 <0>        -0.0181
     32 C21       -11.0051    2.6952    2.2813 C.3       1 <0>        -0.1176
     33 H2          1.0816   -4.8858   -1.2354 H         1 <0>         0.0549
     34 H3         -0.0069   -5.7948   -0.1597 H         1 <0>         0.0538
     35 H4         -0.4674   -5.5065   -1.8548 H         1 <0>         0.0597
     36 H5         -1.6889   -3.9807   -0.3289 H         1 <0>         0.0713
     37 H6         -0.6003   -3.0717   -1.4045 H         1 <0>         0.0721
     38 H7          0.0183   -3.8992    1.4677 H         1 <0>         0.0932
     39 H8          1.1068   -2.9902    0.3920 H         1 <0>         0.0966
     40 H9          0.6124   -1.5272    2.6006 H         1 <0>         0.4030
     41 H10        -1.1766   -0.2724    4.5575 H         1 <0>         0.3996
     42 H11        -3.2544   -0.6404    5.5634 H         1 <0>         0.4076
     43 H12        -5.1345    1.3299    3.4284 H         1 <0>         0.1442
     44 H13        -7.5866    1.3885    3.2949 H         1 <0>         0.1424
     45 H14        -7.7909   -2.1542    5.7131 H         1 <0>         0.1407
     46 H15        -5.0062   -2.2042    7.0843 H         1 <0>         0.0750
     47 H16        -5.7471   -3.4223    6.0187 H         1 <0>         0.0783
     48 H17        -4.1679   -2.7160    5.5999 H         1 <0>         0.0621
     49 H18       -11.4382   -1.1531    4.8865 H         1 <0>         0.1373
     50 H19       -13.8925   -1.0894    4.7504 H         1 <0>         0.1282
     51 H20       -15.0138    0.6971    3.4842 H         1 <0>         0.1292
     52 H21       -13.6899    2.4304    2.3470 H         1 <0>         0.1334
     53 H22       -10.7777    2.3757    1.2643 H         1 <0>         0.0773
     54 H23       -11.5768    3.6228    2.2514 H         1 <0>         0.0694
     55 H24       -10.0759    2.8585    2.8272 H         1 <0>         0.0778
@<TRIPOS>BOND
     1    1    2 1
     2    1   33 1
     3    1   34 1
     4    1   35 1
     5    2    3 1
     6    2   36 1
     7    2   37 1
     8    3    4 1
     9    3   38 1
    10    3   39 1
    11    4    5 2
    12    4    6 am
    13    6    7 1
    14    6   40 1
    15    7    8 1
    16    7    9 1
    17    7   13 1
    18    9   10 1
    19    9   11 1
    20    9   12 1
    21   13   14 1
    22   13   41 1
    23   14   15 2
    24   14   16 1
    25   16   17 1
    26   16   42 1
    27   17   22 ar
    28   17   18 ar
    29   18   19 ar
    30   18   43 1
    31   19   20 ar
    32   19   44 1
    33   20   21 ar
    34   20   24 1
    35   21   22 ar
    36   21   45 1
    37   22   23 1
    38   23   46 1
    39   23   47 1
    40   23   48 1
    41   24   25 2
    42   25   26 1
    43   26   31 ar
    44   26   27 ar
    45   27   28 ar
    46   27   49 1
    47   28   29 ar
    48   28   50 1
    49   29   30 ar
    50   29   51 1
    51   30   31 ar
    52   30   52 1
    53   31   32 1
    54   32   53 1
    55   32   54 1
    56   32   55 1
@<TRIPOS>MOLECULE
ZINC36510923
   79    81     0     0     0
SMALL
USER_CHARGES

@<TRIPOS>ATOM
      1 C1          1.0415    0.7023   -0.3910 C.3       1 <0>        -0.1533
      2 C2          0.7639   -0.7322    0.0630 C.3       1 <0>        -0.1239
      3 C3         -0.7078   -1.0696   -0.1844 C.3       1 <0>        -0.1155
      4 C4         -0.9854   -2.5041    0.2695 C.3       1 <0>        -0.1070
      5 C5         -2.4571   -2.8416    0.0221 C.3       1 <0>        -0.1261
      6 C6         -2.7347   -4.2760    0.4761 C.3       1 <0>         0.1008
      7 N1         -4.1515   -4.5875    0.2712 N.am      1 <0>        -0.5914
      8 C7         -4.6072   -5.1118   -1.0186 C.3       1 <0>         0.1874
      9 H1         -5.4866   -4.5573   -1.3460 H         1 <0>         0.1167
     10 C8         -4.9584   -6.5700   -0.8724 C.ar      1 <0>        -0.1595
     11 C9         -4.0947   -7.4281   -0.2086 C.ar      1 <0>         0.1611
     12 C10        -4.4179   -8.7699   -0.0740 C.ar      1 <0>        -0.1839
     13 C11        -5.6052   -9.2535   -0.6028 C.ar      1 <0>         0.1490
     14 C12        -6.4694   -8.3952   -1.2658 C.ar      1 <0>        -0.1815
     15 C13        -6.1481   -7.0525   -1.3966 C.ar      1 <0>         0.1622
     16 O1         -6.9972   -6.2105   -2.0423 O.3       1 <0>        -0.4822
     17 O2         -5.9215  -10.5686   -0.4717 O.3       1 <0>        -0.4940
     18 O3         -2.9312   -6.9542    0.3097 O.3       1 <0>        -0.4806
     19 C14        -3.5087   -4.9596   -2.0391 C.2       1 <0>         0.5146
     20 O4         -2.4429   -4.4796   -1.7158 O.2       1 <0>        -0.4982
     21 N2         -3.7108   -5.3569   -3.3110 N.am      1 <0>        -0.7208
     22 C15        -2.6430   -5.2090   -4.3030 C.3       1 <0>         0.1495
     23 C16        -2.6859   -3.7975   -4.8919 C.3       1 <0>        -0.1278
     24 C17        -1.5707   -3.6430   -5.9280 C.3       1 <0>        -0.1167
     25 C18        -1.7679   -4.6684   -7.0463 C.3       1 <0>        -0.1226
     26 C19        -1.7250   -6.0799   -6.4574 C.3       1 <0>        -0.1156
     27 C20        -2.8402   -6.2344   -5.4213 C.3       1 <0>        -0.1270
     28 C21        -5.0356   -4.3918    1.2694 C.2       1 <0>         0.5243
     29 O5         -6.2175   -4.5865    1.0795 O.2       1 <0>        -0.5217
     30 C22        -4.5557   -3.9309    2.6216 C.3       1 <0>        -0.0653
     31 H2         -3.5240   -4.2503    2.7692 H         1 <0>         0.0991
     32 C23        -5.4393   -4.5408    3.7115 C.3       1 <0>        -0.1062
     33 C24        -5.2816   -6.0627    3.7037 C.3       1 <0>        -0.1545
     34 C25        -4.6317   -2.4276    2.6960 C.ar      1 <0>        -0.0779
     35 C26        -5.8479   -1.7887    2.5429 C.ar      1 <0>        -0.1044
     36 C27        -5.9176   -0.4098    2.6112 C.ar      1 <0>        -0.1192
     37 C28        -4.7712    0.3301    2.8331 C.ar      1 <0>        -0.1166
     38 C29        -3.5551   -0.3089    2.9871 C.ar      1 <0>        -0.1186
     39 C30        -3.4861   -1.6881    2.9230 C.ar      1 <0>        -0.1025
     40 H3          2.0899    0.9427   -0.2147 H         1 <0>         0.0520
     41 H4          0.8210    0.7960   -1.4543 H         1 <0>         0.0521
     42 H5          0.4113    1.3902    0.1727 H         1 <0>         0.0522
     43 H6          1.3941   -1.4200   -0.5007 H         1 <0>         0.0594
     44 H7          0.9843   -0.8259    1.1263 H         1 <0>         0.0588
     45 H8         -1.3380   -0.3817    0.3793 H         1 <0>         0.0575
     46 H9         -0.9282   -0.9759   -1.2478 H         1 <0>         0.0575
     47 H10        -0.3552   -3.1920   -0.2942 H         1 <0>         0.0638
     48 H11        -0.7650   -2.5978    1.3329 H         1 <0>         0.0524
     49 H12        -3.0873   -2.1537    0.5858 H         1 <0>         0.0533
     50 H13        -2.6775   -2.7479   -1.0412 H         1 <0>         0.0776
     51 H14        -2.1232   -4.9659   -0.1055 H         1 <0>         0.1306
     52 H15        -2.4898   -4.3763    1.5334 H         1 <0>         0.0559
     53 H16        -3.7449   -9.4383    0.4424 H         1 <0>         0.1398
     54 H17        -7.3938   -8.7720   -1.6780 H         1 <0>         0.1414
     55 H18        -6.8353   -6.1416   -2.9931 H         1 <0>         0.3892
     56 H19        -6.4238  -10.7744    0.3286 H         1 <0>         0.3976
     57 H20        -2.9849   -6.7183    1.2459 H         1 <0>         0.3888
     58 H21        -4.5633   -5.7408   -3.5696 H         1 <0>         0.3926
     59 H22        -1.6775   -5.3740   -3.8249 H         1 <0>         0.0907
     60 H23        -3.6515   -3.6325   -5.3701 H         1 <0>         0.0626
     61 H24        -2.5455   -3.0670   -4.0952 H         1 <0>         0.0673
     62 H25        -1.6013   -2.6374   -6.3475 H         1 <0>         0.0650
     63 H26        -0.6052   -3.8080   -5.4498 H         1 <0>         0.0646
     64 H27        -2.7335   -4.5034   -7.5244 H         1 <0>         0.0625
     65 H28        -0.9734   -4.5583   -7.7844 H         1 <0>         0.0645
     66 H29        -1.8654   -6.8104   -7.2541 H         1 <0>         0.0678
     67 H30        -0.7594   -6.2448   -5.9792 H         1 <0>         0.0655
     68 H31        -2.8096   -7.2399   -5.0018 H         1 <0>         0.0684
     69 H32        -3.8057   -6.0694   -5.8995 H         1 <0>         0.0674
     70 H33        -5.1394   -4.1495    4.6836 H         1 <0>         0.0739
     71 H34        -6.4811   -4.2826    3.5215 H         1 <0>         0.0780
     72 H35        -5.4994   -6.4454    2.7066 H         1 <0>         0.0528
     73 H36        -4.2592   -6.3234    3.9776 H         1 <0>         0.0531
     74 H37        -5.9736   -6.5034    4.4213 H         1 <0>         0.0610
     75 H38        -6.7435   -2.3667    2.3696 H         1 <0>         0.1259
     76 H39        -6.8677    0.0895    2.4909 H         1 <0>         0.1216
     77 H40        -4.8256    1.4075    2.8857 H         1 <0>         0.1209
     78 H41        -2.6594    0.2692    3.1601 H         1 <0>         0.1222
     79 H42        -2.5366   -2.1876    3.0471 H         1 <0>         0.1215
@<TRIPOS>BOND
     1    1    2 1
     2    1   40 1
     3    1   41 1
     4    1   42 1
     5    2    3 1
     6    2   43 1
     7    2   44 1
     8    3    4 1
     9    3   45 1
    10    3   46 1
    11    4    5 1
    12    4   47 1
    13    4   48 1
    14    5    6 1
    15    5   49 1
    16    5   50 1
    17    6    7 1
    18    6   51 1
    19    6   52 1
    20    7    8 1
    21    7   28 am
    22    8    9 1
    23    8   10 1
    24    8   19 1
    25   10   15 ar
    26   10   11 ar
    27   11   12 ar
    28   11   18 1
    29   12   13 ar
    30   12   53 1
    31   13   14 ar
    32   13   17 1
    33   14   15 ar
    34   14   54 1
    35   15   16 1
    36   16   55 1
    37   17   56 1
    38   18   57 1
    39   19   20 2
    40   19   21 am
    41   21   22 1
    42   21   58 1
    43   22   27 1
    44   22   23 1
    45   22   59 1
    46   23   24 1
    47   23   60 1
    48   23   61 1
    49   24   25 1
    50   24   62 1
    51   24   63 1
    52   25   26 1
    53   25   64 1
    54   25   65 1
    55   26   27 1
    56   26   66 1
    57   26   67 1
    58   27   68 1
    59   27   69 1
    60   28   29 2
    61   28   30 1
    62   30   31 1
    63   30   32 1
    64   30   34 1
    65   32   33 1
    66   32   70 1
    67   32   71 1
    68   33   72 1
    69   33   73 1
    70   33   74 1
    71   34   39 ar
    72   34   35 ar
    73   35   36 ar
    74   35   75 1
    75   36   37 ar
    76   36   76 1
    77   37   38 ar
    78   37   77 1
    79   38   39 ar
    80   38   78 1
    81   39   79 1
@<TRIPOS>MOLECULE
ZINC36545284
   74    75     0     0     0
SMALL
USER_CHARGES

@<TRIPOS>ATOM
      1 C1          3.7379   -2.7707   -2.8140 C.3       1 <0>        -0.1530
      2 C2          3.4648   -3.7848   -1.7014 C.3       1 <0>        -0.1230
      3 C3          3.5190   -3.0801   -0.3445 C.3       1 <0>        -0.1157
      4 C4          3.2460   -4.0942    0.7682 C.3       1 <0>        -0.1222
      5 C5          3.3002   -3.3895    2.1251 C.3       1 <0>        -0.1355
      6 C6          2.9342   -4.3822    3.2303 C.3       1 <0>         0.1237
      7 H1          3.5581   -5.2715    3.1412 H         1 <0>         0.1261
      8 C7          3.1611   -3.7422    4.5757 C.2       1 <0>         0.5026
      9 O1          2.2540   -3.6801    5.3784 O.2       1 <0>        -0.5190
     10 N1          4.3720   -3.2388    4.8869 N.am      1 <0>        -0.7209
     11 C8          4.5926   -2.6167    6.1947 C.3       1 <0>         0.1747
     12 C9          3.8580   -1.2758    6.2520 C.3       1 <0>        -0.1573
     13 C10         4.0594   -3.5377    7.2940 C.3       1 <0>        -0.1590
     14 C11         6.0907   -2.3869    6.4040 C.3       1 <0>        -0.1153
     15 C12         6.8829   -3.3845    5.5568 C.3       1 <0>        -0.0703
     16 C13         6.8578   -2.9427    4.0921 C.3       1 <0>        -0.1649
     17 C14         8.3306   -3.4354    6.0494 C.3       1 <0>        -0.1410
     18 C15         6.2527   -4.7731    5.6815 C.3       1 <0>        -0.1823
     19 N2          1.5246   -4.7595    3.1006 N.am      1 <0>        -0.5382
     20 C16         0.5220   -3.8634    3.4872 C.ar      1 <0>         0.1340
     21 C17        -0.0110   -3.9258    4.7680 C.ar      1 <0>        -0.0495
     22 C18        -1.0002   -3.0395    5.1468 C.ar      1 <0>        -0.1228
     23 C19        -1.4608   -2.0906    4.2523 C.ar      1 <0>        -0.0954
     24 C20        -0.9328   -2.0251    2.9762 C.ar      1 <0>        -0.1197
     25 C21         0.0614   -2.9052    2.5922 C.ar      1 <0>        -0.0312
     26 Cl1         0.7288   -2.8184    0.9920 Cl        1 <0>        -0.0323
     27 C22         1.1935   -5.9699    2.6088 C.2       1 <0>         0.5947
     28 O2          2.0630   -6.7819    2.3552 O.2       1 <0>        -0.5151
     29 C23        -0.2203   -6.3093    2.3785 C.ar      1 <0>        -0.1820
     30 C24        -0.8271   -6.0111    1.1496 C.ar      1 <0>         0.1662
     31 C25        -2.1584   -6.3348    0.9436 C.ar      1 <0>        -0.1547
     32 C26        -2.8883   -6.9491    1.9442 C.ar      1 <0>        -0.0686
     33 C27        -2.3002   -7.2475    3.1592 C.ar      1 <0>        -0.1531
     34 C28        -0.9686   -6.9382    3.3844 C.ar      1 <0>         0.1588
     35 O3         -0.3923   -7.2372    4.5755 O.3       1 <0>        -0.4874
     36 O4         -0.1133   -5.4076    0.1665 O.3       1 <0>        -0.4805
     37 H2          4.7255   -2.3322   -2.6716 H         1 <0>         0.0529
     38 H3          3.6992   -3.2728   -3.7808 H         1 <0>         0.0534
     39 H4          2.9834   -1.9847   -2.7824 H         1 <0>         0.0519
     40 H5          2.4771   -4.2233   -1.8439 H         1 <0>         0.0604
     41 H6          4.2193   -4.5709   -1.7330 H         1 <0>         0.0609
     42 H7          4.5067   -2.6416   -0.2020 H         1 <0>         0.0598
     43 H8          2.7645   -2.2941   -0.3129 H         1 <0>         0.0579
     44 H9          2.2583   -4.5327    0.6257 H         1 <0>         0.0818
     45 H10         4.0005   -4.8802    0.7365 H         1 <0>         0.0612
     46 H11         4.3072   -3.0093    2.2971 H         1 <0>         0.0702
     47 H12         2.5926   -2.5604    2.1325 H         1 <0>         0.0860
     48 H13         5.0974   -3.2885    4.2449 H         1 <0>         0.4085
     49 H14         2.7833   -1.4474    6.1921 H         1 <0>         0.0686
     50 H15         4.0938   -0.7721    7.1895 H         1 <0>         0.0641
     51 H16         4.1736   -0.6526    5.4154 H         1 <0>         0.0538
     52 H17         4.2941   -4.5729    7.0463 H         1 <0>         0.0617
     53 H18         4.5254   -3.2769    8.2443 H         1 <0>         0.0570
     54 H19         2.9788   -3.4194    7.3747 H         1 <0>         0.0779
     55 H20         6.3477   -1.3709    6.1043 H         1 <0>         0.0719
     56 H21         6.3364   -2.5284    7.4565 H         1 <0>         0.0796
     57 H22         6.4398   -1.9385    4.0227 H         1 <0>         0.0652
     58 H23         7.8731   -2.9419    3.6954 H         1 <0>         0.0707
     59 H24         6.2427   -3.6331    3.5149 H         1 <0>         0.0618
     60 H25         8.3485   -3.7501    7.0928 H         1 <0>         0.0560
     61 H26         8.8950   -4.1461    5.4457 H         1 <0>         0.0571
     62 H27         8.7796   -2.4461    5.9605 H         1 <0>         0.0559
     63 H28         5.1899   -4.7121    5.4471 H         1 <0>         0.0911
     64 H29         6.7395   -5.4568    4.9860 H         1 <0>         0.0517
     65 H30         6.3797   -5.1396    6.7001 H         1 <0>         0.0555
     66 H31         0.3474   -4.6669    5.4671 H         1 <0>         0.1344
     67 H32        -1.4149   -3.0878    6.1428 H         1 <0>         0.1301
     68 H33        -2.2349   -1.3994    4.5513 H         1 <0>         0.1311
     69 H34        -1.2947   -1.2829    2.2800 H         1 <0>         0.1332
     70 H35        -2.6277   -6.1062   -0.0018 H         1 <0>         0.1383
     71 H36        -3.9258   -7.1974    1.7755 H         1 <0>         0.1369
     72 H37        -2.8796   -7.7274    3.9340 H         1 <0>         0.1384
     73 H38        -0.3999   -6.5077    5.2103 H         1 <0>         0.3893
     74 H39         0.3344   -6.0237   -0.4294 H         1 <0>         0.3927
@<TRIPOS>BOND
     1    1    2 1
     2    1   37 1
     3    1   38 1
     4    1   39 1
     5    2    3 1
     6    2   40 1
     7    2   41 1
     8    3    4 1
     9    3   42 1
    10    3   43 1
    11    4    5 1
    12    4   44 1
    13    4   45 1
    14    5    6 1
    15    5   46 1
    16    5   47 1
    17    6    7 1
    18    6    8 1
    19    6   19 1
    20    8    9 2
    21    8   10 am
    22   10   11 1
    23   10   48 1
    24   11   12 1
    25   11   13 1
    26   11   14 1
    27   12   49 1
    28   12   50 1
    29   12   51 1
    30   13   52 1
    31   13   53 1
    32   13   54 1
    33   14   15 1
    34   14   55 1
    35   14   56 1
    36   15   16 1
    37   15   17 1
    38   15   18 1
    39   16   57 1
    40   16   58 1
    41   16   59 1
    42   17   60 1
    43   17   61 1
    44   17   62 1
    45   18   63 1
    46   18   64 1
    47   18   65 1
    48   19   20 1
    49   19   27 am
    50   20   25 ar
    51   20   21 ar
    52   21   22 ar
    53   21   66 1
    54   22   23 ar
    55   22   67 1
    56   23   24 ar
    57   23   68 1
    58   24   25 ar
    59   24   69 1
    60   25   26 1
    61   27   28 2
    62   27   29 1
    63   29   34 ar
    64   29   30 ar
    65   30   31 ar
    66   30   36 1
    67   31   32 ar
    68   31   70 1
    69   32   33 ar
    70   32   71 1
    71   33   34 ar
    72   33   72 1
    73   34   35 1
    74   35   73 1
    75   36   74 1
@<TRIPOS>MOLECULE
ZINC39698189
   64    68     0     0     0
SMALL
USER_CHARGES

@<TRIPOS>ATOM
      1 C1         -0.0167    1.3781    0.0096 C.ar      1 <0>        -0.1090
      2 C2          1.1709    2.0855    0.0021 C.ar      1 <0>        -0.1241
      3 C3          2.3773    1.4107   -0.0130 C.ar      1 <0>        -0.0915
      4 C4          2.3960    0.0285   -0.0201 C.ar      1 <0>        -0.0963
      5 C5          1.2084   -0.6789   -0.0117 C.ar      1 <0>        -0.0952
      6 C6          0.0021   -0.0041    0.0020 C.ar      1 <0>        -0.1239
      7 C7          3.7112   -0.7071   -0.0376 C.3       1 <0>         0.1339
      8 O1          4.1410   -0.9464    1.3041 O.3       1 <0>        -0.3557
      9 C8          5.3077   -1.5988    1.4650 C.2       1 <0>         0.6575
     10 O2          5.9435   -1.9553    0.4929 O.2       1 <0>        -0.5523
     11 N1          5.7703   -1.8565    2.7044 N.am      1 <0>        -0.6949
     12 C9          7.0397   -2.5664    2.8795 C.3       1 <0>         0.1602
     13 H1          7.1543   -3.3066    2.0876 H         1 <0>         0.1203
     14 C10         8.1963   -1.5669    2.8146 C.3       1 <0>        -0.0509
     15 C11         8.2631   -0.9650    1.4346 C.2       1 <0>        -0.1628
     16 C12         7.4978    0.1853    0.9476 C.ar      1 <0>        -0.0793
     17 C13         6.5479    1.0319    1.5215 C.ar      1 <0>        -0.0769
     18 C14         6.0051    2.0438    0.7805 C.ar      1 <0>        -0.1445
     19 C15         6.3904    2.2364   -0.5388 C.ar      1 <0>        -0.1053
     20 C16         7.3264    1.4125   -1.1251 C.ar      1 <0>        -0.1298
     21 C17         7.8922    0.3766   -0.3894 C.ar      1 <0>         0.1054
     22 N2          8.8271   -0.5917   -0.6795 N.pl3     1 <0>        -0.5911
     23 C18         9.0395   -1.3777    0.4203 C.2       1 <0>         0.0689
     24 C19         7.0480   -3.2579    4.2185 C.2       1 <0>         0.5200
     25 O3          6.0881   -3.1667    4.9540 O.2       1 <0>        -0.5155
     26 N3          8.1222   -3.9777    4.5986 N.am      1 <0>        -0.6978
     27 C20         8.1303   -4.6500    5.9002 C.3       1 <0>         0.3803
     28 H2          7.1794   -5.1511    6.0812 H         1 <0>         0.1350
     29 N4          9.2598   -5.6121    5.9905 N.3       1 <0>        -0.6806
     30 C21        10.4881   -4.9750    6.5003 C.3       1 <0>         0.1219
     31 H3         10.8942   -4.3037    5.7436 H         1 <0>         0.1088
     32 C22        10.1325   -4.1653    7.7832 C.3       1 <0>        -0.0851
     33 S1          8.5077   -3.4564    7.2502 S.3       1 <0>        -0.3252
     34 C23        11.5060   -6.0339    6.8376 C.ar      1 <0>        -0.0805
     35 C24        11.1010   -7.2237    7.4131 C.ar      1 <0>        -0.1109
     36 C25        12.0347   -8.1949    7.7225 C.ar      1 <0>        -0.1132
     37 C26        13.3734   -7.9766    7.4560 C.ar      1 <0>        -0.1149
     38 C27        13.7784   -6.7871    6.8796 C.ar      1 <0>        -0.1142
     39 C28        12.8441   -5.8176    6.5663 C.ar      1 <0>        -0.1051
     40 H4         -0.9591    1.9053    0.0259 H         1 <0>         0.1238
     41 H5          1.1563    3.1654    0.0076 H         1 <0>         0.1250
     42 H6          3.3051    1.9634   -0.0196 H         1 <0>         0.1259
     43 H7          1.2231   -1.7588   -0.0176 H         1 <0>         0.1229
     44 H8         -0.9258   -0.5567    0.0082 H         1 <0>         0.1247
     45 H9          3.5884   -1.6586   -0.5549 H         1 <0>         0.0709
     46 H10         4.4573   -0.1052   -0.5563 H         1 <0>         0.0781
     47 H11         5.2627   -1.5719    3.4805 H         1 <0>         0.4139
     48 H12         8.0353   -0.7769    3.5481 H         1 <0>         0.0824
     49 H13         9.1328   -2.0801    3.0329 H         1 <0>         0.0847
     50 H14         6.2427    0.8876    2.5474 H         1 <0>         0.1136
     51 H15         5.2702    2.6986    1.2250 H         1 <0>         0.1181
     52 H16         5.9520    3.0400   -1.1119 H         1 <0>         0.1217
     53 H17         7.6194    1.5703   -2.1525 H         1 <0>         0.1159
     54 H18         9.7278   -2.2088    0.4648 H         1 <0>         0.1647
     55 H19         9.2720   -0.6983   -1.5349 H         1 <0>         0.4140
     56 H20         8.8900   -4.0507    4.0102 H         1 <0>         0.4089
     57 H21         9.0087   -6.4130    6.5505 H         1 <0>         0.3688
     58 H22        10.0159   -4.8192    8.6474 H         1 <0>         0.0994
     59 H23        10.8657   -3.3820    7.9758 H         1 <0>         0.1168
     60 H24        10.0550   -7.3943    7.6213 H         1 <0>         0.1189
     61 H25        11.7183   -9.1242    8.1728 H         1 <0>         0.1254
     62 H26        14.1030   -8.7351    7.6983 H         1 <0>         0.1246
     63 H27        14.8243   -6.6164    6.6717 H         1 <0>         0.1259
     64 H28        13.1601   -4.8899    6.1126 H         1 <0>         0.1250
@<TRIPOS>BOND
     1    1    6 ar
     2    1    2 ar
     3    1   40 1
     4    2    3 ar
     5    2   41 1
     6    3    4 ar
     7    3   42 1
     8    4    5 ar
     9    4    7 1
    10    5    6 ar
    11    5   43 1
    12    6   44 1
    13    7    8 1
    14    7   45 1
    15    7   46 1
    16    8    9 1
    17    9   10 2
    18    9   11 am
    19   11   12 1
    20   11   47 1
    21   12   13 1
    22   12   14 1
    23   12   24 1
    24   14   48 1
    25   14   49 1
    26   14   15 1
    27   15   16 1
    28   15   23 2
    29   16   17 ar
    30   16   21 ar
    31   17   18 ar
    32   17   50 1
    33   18   19 ar
    34   18   51 1
    35   19   20 ar
    36   19   52 1
    37   20   21 ar
    38   20   53 1
    39   21   22 1
    40   22   55 1
    41   22   23 1
    42   23   54 1
    43   24   25 2
    44   24   26 am
    45   26   27 1
    46   26   56 1
    47   27   28 1
    48   27   33 1
    49   27   29 1
    50   29   30 1
    51   29   57 1
    52   30   31 1
    53   30   32 1
    54   30   34 1
    55   32   33 1
    56   32   58 1
    57   32   59 1
    58   34   39 ar
    59   34   35 ar
    60   35   36 ar
    61   35   60 1
    62   36   37 ar
    63   36   61 1
    64   37   38 ar
    65   37   62 1
    66   38   39 ar
    67   38   63 1
    68   39   64 1
@<TRIPOS>MOLECULE
ZINC08820195
   55    57     0     0     0
SMALL
USER_CHARGES
N'-[6-[5-[(4-chlorophenyl)methylene]-4-oxo-2-thioxo-thiazolidin-3-yl]hexanoyl]-2-hydroxy-benzohydrazide
@<TRIPOS>ATOM
      1 C1         -3.7709    8.2367    2.6927 C.ar      1 <0>        -0.1350
      2 C2         -4.4069    8.7977    3.7883 C.ar      1 <0>        -0.0699
      3 C3         -4.6917    8.0296    4.8995 C.ar      1 <0>        -0.1548
      4 C4         -4.3416    6.6876    4.9255 C.ar      1 <0>         0.1757
      5 C5         -3.6986    6.1163    3.8192 C.ar      1 <0>        -0.1647
      6 C6         -3.4117    6.9065    2.7033 C.ar      1 <0>        -0.0701
      7 C7         -3.3214    4.6901    3.8351 C.2       1 <0>         0.5621
      8 O1         -3.5683    4.0068    4.8100 O.2       1 <0>        -0.5199
      9 N1         -2.7031    4.1446    2.7690 N.am      1 <0>        -0.5241
     10 N2         -2.3450    2.7902    2.7841 N.am      1 <0>        -0.5229
     11 C8         -1.7267    2.2447    1.7180 C.2       1 <0>         0.5139
     12 O2         -1.4804    2.9263    0.7455 O.2       1 <0>        -0.5380
     13 C9         -1.3414    0.7879    1.7342 C.3       1 <0>        -0.1296
     14 C10        -0.6599    0.4258    0.4132 C.3       1 <0>        -0.1028
     15 C11        -0.2687   -1.0532    0.4297 C.3       1 <0>        -0.1138
     16 C12         0.4129   -1.4153   -0.8914 C.3       1 <0>        -0.1311
     17 C13         0.8040   -2.8944   -0.8749 C.3       1 <0>         0.0811
     18 N3          1.4566   -3.2411   -2.1398 N.am      1 <0>        -0.5195
     19 C14         2.7691   -3.1179   -2.2447 C.2       1 <0>         0.5462
     20 O3          3.4506   -2.7228   -1.3171 O.2       1 <0>        -0.4535
     21 C15         3.3659   -3.4842   -3.5463 C.2       1 <0>        -0.2426
     22 C16         4.6638   -3.4607   -3.9398 C.2       1 <0>         0.0892
     23 C17         5.0484   -4.0308   -5.2387 C.ar      1 <0>        -0.0975
     24 C18         4.1187   -4.7586   -5.9902 C.ar      1 <0>        -0.0733
     25 C19         4.4850   -5.2853   -7.2100 C.ar      1 <0>        -0.1061
     26 C20         5.7733   -5.1056   -7.6873 C.ar      1 <0>        -0.0087
     27 C21         6.7009   -4.3912   -6.9464 C.ar      1 <0>        -0.1126
     28 C22         6.3477   -3.8536   -5.7275 C.ar      1 <0>        -0.0610
     29 Cl1         6.2273   -5.7786   -9.2218 Cl        1 <0>        -0.0517
     30 S1          1.9069   -3.9678   -4.4591 S.3       1 <0>         0.0757
     31 C23         0.7058   -3.6837   -3.1688 C.2       1 <0>         0.2588
     32 S2         -0.9896   -3.9148   -3.2253 S.2       1 <0>        -0.3302
     33 O4         -4.6200    5.9319    6.0170 O.3       1 <0>        -0.4776
     34 H1         -3.5517    8.8458    1.8283 H         1 <0>         0.1357
     35 H2         -4.6812    9.8422    3.7731 H         1 <0>         0.1357
     36 H3         -5.1874    8.4742    5.7499 H         1 <0>         0.1399
     37 H4         -2.9123    6.4744    1.8487 H         1 <0>         0.1305
     38 H5         -2.5062    4.6897    1.9912 H         1 <0>         0.4302
     39 H6         -2.5420    2.2451    3.5619 H         1 <0>         0.4332
     40 H7         -2.2352    0.1771    1.8613 H         1 <0>         0.1033
     41 H8         -0.6545    0.6030    2.5601 H         1 <0>         0.1020
     42 H9          0.2339    1.0366    0.2861 H         1 <0>         0.0727
     43 H10        -1.3468    0.6108   -0.4127 H         1 <0>         0.0749
     44 H11         0.4182   -1.2382    1.2555 H         1 <0>         0.0697
     45 H12        -1.1625   -1.6640    0.5568 H         1 <0>         0.0736
     46 H13        -0.2740   -1.2303   -1.7173 H         1 <0>         0.0763
     47 H14         1.3067   -0.8045   -1.0185 H         1 <0>         0.0700
     48 H15         1.4909   -3.0793   -0.0490 H         1 <0>         0.1049
     49 H16        -0.0898   -3.5052   -0.7478 H         1 <0>         0.1143
     50 H17         5.4146   -3.0230   -3.2987 H         1 <0>         0.1676
     51 H18         3.1155   -4.9032   -5.6173 H         1 <0>         0.1376
     52 H19         3.7673   -5.8430   -7.7933 H         1 <0>         0.1460
     53 H20         7.7031   -4.2551   -7.3251 H         1 <0>         0.1455
     54 H21         7.0717   -3.2967   -5.1512 H         1 <0>         0.1469
     55 H22        -3.9162    5.9244    6.6802 H         1 <0>         0.3981
@<TRIPOS>BOND
     1    1    6 ar
     2    1    2 ar
     3    1   34 1
     4    2    3 ar
     5    2   35 1
     6    3    4 ar
     7    3   36 1
     8    4    5 ar
     9    4   33 1
    10    5    6 ar
    11    5    7 1
    12    6   37 1
    13    7    8 2
    14    7    9 am
    15    9   10 1
    16    9   38 1
    17   10   11 am
    18   10   39 1
    19   11   12 2
    20   11   13 1
    21   13   14 1
    22   13   40 1
    23   13   41 1
    24   14   15 1
    25   14   42 1
    26   14   43 1
    27   15   16 1
    28   15   44 1
    29   15   45 1
    30   16   17 1
    31   16   46 1
    32   16   47 1
    33   17   18 1
    34   17   48 1
    35   17   49 1
    36   18   31 1
    37   18   19 am
    38   19   20 2
    39   19   21 1
    40   21   22 2
    41   21   30 1
    42   22   23 1
    43   22   50 1
    44   23   28 ar
    45   23   24 ar
    46   24   25 ar
    47   24   51 1
    48   25   26 ar
    49   25   52 1
    50   26   27 ar
    51   26   29 1
    52   27   28 ar
    53   27   53 1
    54   28   54 1
    55   30   31 1
    56   31   32 2
    57   33   55 1
@<TRIPOS>MOLECULE
ZINC14662933
   58    59     0     0     0
SMALL
USER_CHARGES
5-bromo-N-[[[2-(2-isopropylphenoxy)acetyl]amino]carbamothioyl]-2-(2-methoxyethoxy)benzamide
@<TRIPOS>ATOM
      1 C1          1.7673   15.1643   -1.1872 C.3       1 <0>        -0.1428
      2 C2          1.6029   14.2924    0.0592 C.3       1 <0>        -0.0560
      3 C3          1.7908   15.1516    1.3111 C.3       1 <0>        -0.1428
      4 C4          0.2237   13.6852    0.0690 C.ar      1 <0>        -0.0956
      5 C5         -0.8911   14.5014    0.0832 C.ar      1 <0>        -0.0772
      6 C6         -2.1565   13.9450    0.0918 C.ar      1 <0>        -0.1487
      7 C7         -2.3102   12.5707    0.0858 C.ar      1 <0>        -0.0846
      8 C8         -1.1991   11.7504    0.0663 C.ar      1 <0>        -0.2067
      9 C9          0.0722   12.3064    0.0634 C.ar      1 <0>         0.1236
     10 O1          1.1671   11.5014    0.0495 O.3       1 <0>        -0.2853
     11 C10         0.9355   10.0913    0.0445 C.3       1 <0>         0.0524
     12 C11         2.2561    9.3654    0.0290 C.2       1 <0>         0.5226
     13 O2          3.2934    9.9938    0.0229 O.2       1 <0>        -0.4876
     14 N1          2.2844    8.0180    0.0219 N.am      1 <0>        -0.5514
     15 N2          3.5121    7.3432    0.0075 N.pl3     1 <0>        -0.4559
     16 C12         3.5405    5.9958    0.0005 C.2       1 <0>         0.5167
     17 S1          5.0407    5.1712   -0.0172 S.2       1 <0>        -0.4469
     18 N3          2.3877    5.2975    0.0073 N.am      1 <0>        -0.6455
     19 C13         2.4160    3.9500    0.0002 C.2       1 <0>         0.5361
     20 O3          3.4813    3.3645   -0.0123 O.2       1 <0>        -0.3703
     21 C14         1.1549    3.1860    0.0077 C.ar      1 <0>        -0.1706
     22 C15        -0.0720    3.8550    0.0225 C.ar      1 <0>        -0.0228
     23 C16        -1.2473    3.1347    0.0299 C.ar      1 <0>        -0.1397
     24 C17        -1.2180    1.7487    0.0173 C.ar      1 <0>        -0.0146
     25 C18        -0.0126    1.0758    0.0080 C.ar      1 <0>        -0.2097
     26 C19         1.1796    1.7846    0.0004 C.ar      1 <0>         0.2148
     27 O4          2.3646    1.1242   -0.0145 O.3       1 <0>        -0.2640
     28 C20         2.3115   -0.3038   -0.0216 C.3       1 <0>         0.0519
     29 C21         3.7340   -0.8669   -0.0382 C.3       1 <0>         0.0627
     30 O5          4.3981   -0.5194    1.1784 O.3       1 <0>        -0.3819
     31 C22         5.7411   -1.0000    1.2653 C.3       1 <0>         0.0324
     32 Br1        -2.9069    4.0410    0.0500 Br        1 <0>        -0.0367
     33 H1          1.0208   15.9585   -1.1762 H         1 <0>         0.0554
     34 H2          2.7649   15.6035   -1.1944 H         1 <0>         0.0595
     35 H3          1.6335   14.5522   -2.0791 H         1 <0>         0.0546
     36 H4          2.3494   13.4982    0.0481 H         1 <0>         0.0884
     37 H5          2.7884   15.5908    1.3040 H         1 <0>         0.0595
     38 H6          1.0443   15.9457    1.3221 H         1 <0>         0.0554
     39 H7          1.6736   14.5304    2.1991 H         1 <0>         0.0546
     40 H8         -0.7736   15.5750    0.0872 H         1 <0>         0.1306
     41 H9         -3.0266   14.5847    0.1028 H         1 <0>         0.1256
     42 H10        -3.2999   12.1384    0.0921 H         1 <0>         0.1263
     43 H11        -1.3197   10.6772    0.0571 H         1 <0>         0.1271
     44 H12         0.3617    9.8205   -0.8418 H         1 <0>         0.1035
     45 H13         0.3776    9.8115    0.9381 H         1 <0>         0.1036
     46 H14         1.4548    7.5154    0.0268 H         1 <0>         0.4191
     47 H15         4.3418    7.8458    0.0026 H         1 <0>         0.4590
     48 H16         1.5377    5.7647    0.0173 H         1 <0>         0.3981
     49 H17        -0.0993    4.9347    0.0279 H         1 <0>         0.1339
     50 H18        -2.1435    1.1921    0.0190 H         1 <0>         0.1453
     51 H19         0.0021   -0.0041    0.0020 H         1 <0>         0.1495
     52 H20         1.7931   -0.6525    0.8715 H         1 <0>         0.0781
     53 H21         1.7761   -0.6430   -0.9084 H         1 <0>         0.0841
     54 H22         3.6941   -1.9520   -0.1333 H         1 <0>         0.0737
     55 H23         4.2807   -0.4481   -0.8831 H         1 <0>         0.0655
     56 H24         6.1753   -0.6947    2.2173 H         1 <0>         0.0883
     57 H25         5.7428   -2.0879    1.1973 H         1 <0>         0.0406
     58 H26         6.3295   -0.5839    0.4475 H         1 <0>         0.0451
@<TRIPOS>BOND
     1    1    2 1
     2    1   33 1
     3    1   34 1
     4    1   35 1
     5    2    3 1
     6    2    4 1
     7    2   36 1
     8    3   37 1
     9    3   38 1
    10    3   39 1
    11    4    9 ar
    12    4    5 ar
    13    5    6 ar
    14    5   40 1
    15    6    7 ar
    16    6   41 1
    17    7    8 ar
    18    7   42 1
    19    8    9 ar
    20    8   43 1
    21    9   10 1
    22   10   11 1
    23   11   12 1
    24   11   44 1
    25   11   45 1
    26   12   13 2
    27   12   14 am
    28   14   15 1
    29   14   46 1
    30   15   16 1
    31   15   47 1
    32   16   17 2
    33   16   18 1
    34   18   19 am
    35   18   48 1
    36   19   20 2
    37   19   21 1
    38   21   26 ar
    39   21   22 ar
    40   22   23 ar
    41   22   49 1
    42   23   24 ar
    43   23   32 1
    44   24   25 ar
    45   24   50 1
    46   25   26 ar
    47   25   51 1
    48   26   27 1
    49   27   28 1
    50   28   29 1
    51   28   52 1
    52   28   53 1
    53   29   30 1
    54   29   54 1
    55   29   55 1
    56   30   31 1
    57   31   56 1
    58   31   57 1
    59   31   58 1
@<TRIPOS>MOLECULE
ZINC20608650
   63    66     0     0     0
SMALL
USER_CHARGES
N-(3-cyano-4,5,6,7-tetrahydrobenzothiophen-2-yl)-2-[[5-[(N'E)-N'-[(4-diethylaminophenyl)methylene]hydrazino]-4H-1,2,4-triazol-3-yl]sulfanyl]acetamide
@<TRIPOS>ATOM
      1 C1         -4.2372   21.6342   -5.0861 C.3       1 <0>        -0.1749
      2 C2         -5.6852   21.1841   -5.2905 C.3       1 <0>         0.1129
      3 N1         -5.8650   20.7298   -6.6716 N.pl3     1 <0>        -0.6208
      4 C3         -6.2725   21.6812   -7.7084 C.3       1 <0>         0.1129
      5 C4         -7.7996   21.7204   -7.7929 C.3       1 <0>        -0.1750
      6 C5         -5.6482   19.3907   -6.9996 C.ar      1 <0>         0.2414
      7 C6         -5.8194   18.9614   -8.3113 C.ar      1 <0>        -0.2037
      8 C7         -5.6068   17.6403   -8.6388 C.ar      1 <0>        -0.0333
      9 C8         -5.2184   16.7310   -7.6509 C.ar      1 <0>        -0.1259
     10 C9         -5.0525   17.1651   -6.3327 C.ar      1 <0>        -0.0272
     11 C10        -5.2619   18.4890   -6.0139 C.ar      1 <0>        -0.2062
     12 C11        -4.9904   15.3165   -7.9971 C.2       1 <0>         0.1413
     13 N2         -4.6296   14.4730   -7.0779 N.2       1 <0>        -0.2693
     14 N3         -4.4129   13.1286   -7.4070 N.pl3     1 <0>        -0.5608
     15 C12        -4.0275   12.2275   -6.4251 C.2       1 <0>         0.5455
     16 N4         -3.7840   10.8946   -6.6083 N.2       1 <0>        -0.5533
     17 C13        -3.4312   10.3601   -5.4016 C.2       1 <0>         0.2079
     18 N5         -3.4605   11.3205   -4.5087 N.2       1 <0>        -0.3301
     19 N6         -3.8332   12.5045   -5.1584 N.pl3     1 <0>        -0.4764
     20 S1         -3.0171    8.6749   -5.0968 S.3       1 <0>         0.1221
     21 C14        -2.6526    8.6269   -3.3204 C.3       1 <0>        -0.1637
     22 C15        -2.2787    7.2224   -2.9221 C.2       1 <0>         0.5365
     23 O1         -2.2599    6.3406   -3.7546 O.2       1 <0>        -0.4797
     24 N7         -1.9652    6.9463   -1.6407 N.am      1 <0>        -0.6292
     25 C16        -1.6207    5.6527   -1.2739 C.2       1 <0>         0.0973
     26 C17        -1.2707    5.1773   -0.0190 C.2       1 <0>        -0.1316
     27 C18        -0.9512    3.7654    0.0998 C.2       1 <0>        -0.0610
     28 C19        -1.0317    3.0588   -1.0494 C.2       1 <0>        -0.2070
     29 S2         -1.5238    4.2402   -2.2726 S.3       1 <0>         0.2541
     30 C20        -0.7609    1.5973   -1.2317 C.3       1 <0>        -0.0381
     31 C21        -0.0127    1.0858    0.0080 C.3       1 <0>        -0.1155
     32 C22        -0.7351    1.5825    1.2637 C.3       1 <0>        -0.1197
     33 C23        -0.5508    3.0936    1.4075 C.3       1 <0>        -0.0634
     34 C24        -1.2264    6.0465    1.1182 C.1       1 <0>         0.2693
     35 N8         -1.1913    6.7361    2.0203 N.1       1 <0>        -0.4261
     36 H1         -4.1022   21.9753   -4.0491 H         1 <0>         0.0665
     37 H2         -4.0090   22.4597   -5.7763 H         1 <0>         0.0573
     38 H3         -3.5595   20.7911   -5.2860 H         1 <0>         0.0598
     39 H4         -5.9134   20.3586   -4.6003 H         1 <0>         0.0783
     40 H5         -6.3629   22.0271   -5.0906 H         1 <0>         0.0765
     41 H6         -5.8934   22.6826   -7.4565 H         1 <0>         0.0764
     42 H7         -5.8596   21.3660   -8.6780 H         1 <0>         0.0788
     43 H8         -8.1055   22.4348   -8.5714 H         1 <0>         0.0668
     44 H9         -8.2125   22.0356   -6.8233 H         1 <0>         0.0570
     45 H10        -8.1787   20.7190   -8.0448 H         1 <0>         0.0601
     46 H11        -6.1199   19.6645   -9.0740 H         1 <0>         0.1281
     47 H12        -5.7403   17.3075   -9.6576 H         1 <0>         0.1283
     48 H13        -4.7564   16.4646   -5.5659 H         1 <0>         0.1273
     49 H14        -5.1295   18.8261   -4.9965 H         1 <0>         0.1261
     50 H15        -5.1259   14.9754   -9.0341 H         1 <0>         0.1261
     51 H16        -4.5483   12.7875   -8.4440 H         1 <0>         0.4356
     52 H17        -1.8158    9.3058   -3.0993 H         1 <0>         0.1328
     53 H18        -3.5413    8.9441   -2.7550 H         1 <0>         0.1328
     54 H19        -1.9824    7.7461   -0.8857 H         1 <0>         0.4515
     55 H20        -1.7136    1.0593   -1.3454 H         1 <0>         0.0855
     56 H21        -0.1458    1.4478   -2.1313 H         1 <0>         0.0841
     57 H22         0.0032   -0.0140   -0.0012 H         1 <0>         0.0755
     58 H23         1.0189    1.4675   -0.0029 H         1 <0>         0.0696
     59 H24        -1.8082    1.3541    1.1839 H         1 <0>         0.0690
     60 H25        -0.3183    1.0805    2.1493 H         1 <0>         0.0717
     61 H26         0.5025    3.3206    1.6288 H         1 <0>         0.0802
     62 H27        -1.1862    3.4701    2.2227 H         1 <0>         0.0744
     63 H28        -3.9723   13.5325   -4.7926 H         1 <0>         0.4745
@<TRIPOS>BOND
     1    1    2 1
     2    1   36 1
     3    1   37 1
     4    1   38 1
     5    2    3 1
     6    2   39 1
     7    2   40 1
     8    3    4 1
     9    3    6 1
    10    4    5 1
    11    4   41 1
    12    4   42 1
    13    5   43 1
    14    5   44 1
    15    5   45 1
    16    6   11 ar
    17    6    7 ar
    18    7    8 ar
    19    7   46 1
    20    8    9 ar
    21    8   47 1
    22    9   10 ar
    23    9   12 1
    24   10   11 ar
    25   10   48 1
    26   11   49 1
    27   12   13 2
    28   12   50 1
    29   13   14 1
    30   14   15 1
    31   14   51 1
    32   15   19 1
    33   15   16 2
    34   16   17 1
    35   17   18 2
    36   17   20 1
    37   18   19 1
    38   19   63 1
    39   20   21 1
    40   21   22 1
    41   21   52 1
    42   21   53 1
    43   22   23 2
    44   22   24 am
    45   24   25 1
    46   24   54 1
    47   25   29 1
    48   25   26 2
    49   26   27 1
    50   26   34 1
    51   27   33 1
    52   27   28 2
    53   28   29 1
    54   28   30 1
    55   30   31 1
    56   30   55 1
    57   30   56 1
    58   31   32 1
    59   31   57 1
    60   31   58 1
    61   32   33 1
    62   32   59 1
    63   32   60 1
    64   33   61 1
    65   33   62 1
    66   34   35 3
@<TRIPOS>MOLECULE
ZINC36597628
   75    77     0     0     0
SMALL
USER_CHARGES

@<TRIPOS>ATOM
      1 C1          0.0652    2.9626   -1.2257 C.3       1 <0>        -0.1164
      2 C2          0.4115    1.6460   -0.5795 C.ar      1 <0>        -0.0789
      3 C3          0.7649    0.5633   -1.3629 C.ar      1 <0>        -0.1187
      4 C4          1.0826   -0.6444   -0.7702 C.ar      1 <0>        -0.1083
      5 C5          1.0475   -0.7693    0.6061 C.ar      1 <0>        -0.0991
      6 C6          0.6950    0.3136    1.3896 C.ar      1 <0>        -0.0889
      7 C7          0.3814    1.5225    0.7970 C.ar      1 <0>        -0.1178
      8 C8          1.3929   -2.0862    1.2522 C.3       1 <0>         0.1725
      9 H1          1.2072   -2.8966    0.5473 H         1 <0>         0.1086
     10 C9          2.8476   -2.0863    1.6459 C.2       1 <0>         0.5171
     11 O1          3.1780   -2.4751    2.7462 O.2       1 <0>        -0.5088
     12 N1          3.7813   -1.6544    0.7752 N.am      1 <0>        -0.7262
     13 C10         5.1955   -1.6546    1.1579 C.3       1 <0>         0.1788
     14 C11         5.4220   -0.6323    2.2735 C.3       1 <0>        -0.1712
     15 C12         5.5893   -3.0471    1.6546 C.3       1 <0>        -0.1855
     16 C13         6.0520   -1.2844   -0.0546 C.3       1 <0>        -0.1152
     17 C14         5.5490   -2.0425   -1.2848 C.3       1 <0>        -0.0658
     18 C15         4.1443   -1.5549   -1.6453 C.3       1 <0>        -0.1790
     19 C16         6.4941   -1.7899   -2.4612 C.3       1 <0>        -0.1423
     20 C17         5.5057   -3.5408   -0.9781 C.3       1 <0>        -0.1506
     21 N2          0.5641   -2.2771    2.4451 N.am      1 <0>        -0.5845
     22 C18         1.1929   -2.3884    3.7637 C.3       1 <0>         0.1736
     23 C19         1.7896   -1.0594    4.1494 C.2       1 <0>        -0.0210
     24 C20         1.1605   -0.0810    4.8249 C.2       1 <0>        -0.1882
     25 C21         2.0857    0.9785    4.9677 C.2       1 <0>        -0.2189
     26 C22         3.2249    0.5840    4.3710 C.2       1 <0>        -0.0182
     27 O2          3.0416   -0.6534    3.8822 O.3       1 <0>        -0.1324
     28 C23         4.4936    1.3915    4.2726 C.3       1 <0>        -0.0903
     29 C24        -0.7766   -2.3503    2.3295 C.2       1 <0>         0.5841
     30 O3         -1.2986   -2.2579    1.2349 O.2       1 <0>        -0.5105
     31 C25        -1.6096   -2.5422    3.5285 C.ar      1 <0>        -0.1797
     32 C26        -2.0914   -1.4328    4.2385 C.ar      1 <0>         0.1592
     33 C27        -2.8747   -1.6248    5.3651 C.ar      1 <0>        -0.1540
     34 C28        -3.1817   -2.9041    5.7898 C.ar      1 <0>        -0.0694
     35 C29        -2.7116   -4.0045    5.0976 C.ar      1 <0>        -0.1536
     36 C30        -1.9315   -3.8355    3.9652 C.ar      1 <0>         0.1547
     37 O4         -1.4766   -4.9169    3.2842 O.3       1 <0>        -0.4873
     38 O5         -1.7912   -0.1765    3.8241 O.3       1 <0>        -0.4867
     39 H2          0.9686    3.5627   -1.3346 H         1 <0>         0.0704
     40 H3         -0.3713    2.7815   -2.2080 H         1 <0>         0.0669
     41 H4         -0.6523    3.4958   -0.6020 H         1 <0>         0.0661
     42 H5          0.7924    0.6608   -2.4382 H         1 <0>         0.1232
     43 H6          1.3580   -1.4905   -1.3823 H         1 <0>         0.1194
     44 H7          0.6672    0.2160    2.4648 H         1 <0>         0.1351
     45 H8          0.1096    2.3697    1.4093 H         1 <0>         0.1194
     46 H9          3.5170   -1.3435   -0.1047 H         1 <0>         0.4159
     47 H10         4.8877   -0.9480    3.1696 H         1 <0>         0.0920
     48 H11         6.4877   -0.5626    2.4915 H         1 <0>         0.0590
     49 H12         5.0520    0.3420    1.9542 H         1 <0>         0.0554
     50 H13         5.2475   -3.7973    0.9414 H         1 <0>         0.0796
     51 H14         6.6734   -3.1052    1.7514 H         1 <0>         0.0565
     52 H15         5.1275   -3.2309    2.6246 H         1 <0>         0.0789
     53 H16         5.9819   -0.2118   -0.2351 H         1 <0>         0.0676
     54 H17         7.0905   -1.5534    0.1384 H         1 <0>         0.0809
     55 H18         4.0730   -0.4832   -1.4597 H         1 <0>         0.0656
     56 H19         3.9495   -1.7550   -2.6989 H         1 <0>         0.0678
     57 H20         3.4097   -2.0792   -1.0341 H         1 <0>         0.0809
     58 H21         7.4949   -2.1372   -2.2044 H         1 <0>         0.0571
     59 H22         6.1358   -2.3299   -3.3376 H         1 <0>         0.0574
     60 H23         6.5250   -0.7224   -2.6797 H         1 <0>         0.0553
     61 H24         4.5746   -3.7797   -0.4642 H         1 <0>         0.0626
     62 H25         5.5615   -4.1042   -1.9096 H         1 <0>         0.0523
     63 H26         6.3502   -3.8060   -0.3420 H         1 <0>         0.0670
     64 H27         0.4433   -2.6777    4.5003 H         1 <0>         0.0883
     65 H28         1.9785   -3.1431    3.7290 H         1 <0>         0.1406
     66 H29         0.1435   -0.1006    5.1879 H         1 <0>         0.1459
     67 H30         1.9112    1.9233    5.4609 H         1 <0>         0.1388
     68 H31         5.1649    1.1139    5.0853 H         1 <0>         0.0769
     69 H32         4.9781    1.1918    3.3169 H         1 <0>         0.0863
     70 H33         4.2553    2.4527    4.3445 H         1 <0>         0.0815
     71 H34        -3.2466   -0.7720    5.9136 H         1 <0>         0.1392
     72 H35        -3.7930   -3.0448    6.6690 H         1 <0>         0.1380
     73 H36        -2.9568   -4.9996    5.4384 H         1 <0>         0.1396
     74 H37        -0.6184   -5.2415    3.5895 H         1 <0>         0.3947
     75 H38        -2.4299    0.1950    3.2002 H         1 <0>         0.3974
@<TRIPOS>BOND
     1    1    2 1
     2    1   39 1
     3    1   40 1
     4    1   41 1
     5    2    7 ar
     6    2    3 ar
     7    3    4 ar
     8    3   42 1
     9    4    5 ar
    10    4   43 1
    11    5    6 ar
    12    5    8 1
    13    6    7 ar
    14    6   44 1
    15    7   45 1
    16    8    9 1
    17    8   10 1
    18    8   21 1
    19   10   11 2
    20   10   12 am
    21   12   13 1
    22   12   46 1
    23   13   14 1
    24   13   15 1
    25   13   16 1
    26   14   47 1
    27   14   48 1
    28   14   49 1
    29   15   50 1
    30   15   51 1
    31   15   52 1
    32   16   17 1
    33   16   53 1
    34   16   54 1
    35   17   18 1
    36   17   19 1
    37   17   20 1
    38   18   55 1
    39   18   56 1
    40   18   57 1
    41   19   58 1
    42   19   59 1
    43   19   60 1
    44   20   61 1
    45   20   62 1
    46   20   63 1
    47   21   22 1
    48   21   29 am
    49   22   23 1
    50   22   64 1
    51   22   65 1
    52   23   27 1
    53   23   24 2
    54   24   25 1
    55   24   66 1
    56   25   26 2
    57   25   67 1
    58   26   27 1
    59   26   28 1
    60   28   68 1
    61   28   69 1
    62   28   70 1
    63   29   30 2
    64   29   31 1
    65   31   36 ar
    66   31   32 ar
    67   32   33 ar
    68   32   38 1
    69   33   34 ar
    70   33   71 1
    71   34   35 ar
    72   34   72 1
    73   35   36 ar
    74   35   73 1
    75   36   37 1
    76   37   74 1
    77   38   75 1
@<TRIPOS>MOLECULE
ZINC58988535
   55    57     0     0     0
SMALL
USER_CHARGES

@<TRIPOS>ATOM
      1 C1         -0.0178    1.4608    0.0101 C.3       1 <0>         0.0917
      2 N1          0.0021   -0.0041    0.0020 N.pl3     1 <0>        -0.6336
      3 C2          1.2806   -0.7192   -0.0140 C.3       1 <0>         0.0891
      4 C3         -1.1961   -0.7178    0.0096 C.ar      1 <0>         0.2324
      5 C4         -1.1752   -2.1085    0.0077 C.ar      1 <0>        -0.2046
      6 C5         -2.3566   -2.8168    0.0152 C.ar      1 <0>        -0.0373
      7 C6         -3.5774   -2.1362    0.0247 C.ar      1 <0>        -0.1235
      8 C7         -3.5944   -0.7386    0.0267 C.ar      1 <0>        -0.0252
      9 C8         -2.4090   -0.0371    0.0249 C.ar      1 <0>        -0.2026
     10 C9         -4.8437   -2.8904    0.0323 C.2       1 <0>         0.1264
     11 N2         -5.9765   -2.2568    0.0412 N.2       1 <0>        -0.2453
     12 N3         -7.1801   -2.9737    0.0483 N.am      1 <0>        -0.5873
     13 C10        -8.3563   -2.3158    0.0576 C.2       1 <0>         0.5305
     14 O1         -8.3728   -1.1028    0.0596 O.2       1 <0>        -0.5022
     15 C11        -9.6510   -3.0870    0.0653 C.3       1 <0>        -0.1277
     16 C12       -10.8273   -2.1087    0.0750 C.3       1 <0>        -0.0904
     17 C13       -12.1418   -2.8916    0.0828 C.3       1 <0>        -0.1138
     18 S1        -13.5364   -1.7317    0.0944 S.3       1 <0>         0.0369
     19 C14       -14.9574   -2.7736    0.1025 C.2       1 <0>         0.1944
     20 N4        -14.9604   -4.0880    0.1062 N.2       1 <0>        -0.2864
     21 N5        -16.1683   -4.5265    0.1119 N.2       1 <0>        -0.2458
     22 C15       -17.0106   -3.5196    0.1122 C.2       1 <0>         0.1846
     23 N6        -16.2608   -2.3660    0.1122 N.pl3     1 <0>        -0.3014
     24 N7        -16.7237   -1.0808    0.1179 N.3       1 <0>        -0.5848
     25 C16       -18.4862   -3.6085    0.1179 C.ar      1 <0>         0.0005
     26 C17       -19.2569   -2.4892   -0.2008 C.ar      1 <0>        -0.1183
     27 C18       -20.6333   -2.5784   -0.1937 C.ar      1 <0>        -0.0791
     28 C19       -21.2507   -3.7748    0.1292 C.ar      1 <0>        -0.0799
     29 C20       -20.4917   -4.8884    0.4467 C.ar      1 <0>        -0.0806
     30 C21       -19.1144   -4.8136    0.4365 C.ar      1 <0>        -0.0667
     31 Br1       -23.1383   -3.8883    0.1372 Br        1 <0>        -0.0352
     32 H1          1.0048    1.8381    0.0023 H         1 <0>         0.0747
     33 H2         -0.5450    1.8219   -0.8730 H         1 <0>         0.0570
     34 H3         -0.5280    1.8123    0.9069 H         1 <0>         0.0571
     35 H4          1.6074   -0.9021    1.0096 H         1 <0>         0.0509
     36 H5          1.1583   -1.6705   -0.5318 H         1 <0>         0.0708
     37 H6          2.0272   -0.1171   -0.5318 H         1 <0>         0.0685
     38 H7         -0.2316   -2.6338   -0.0000 H         1 <0>         0.1271
     39 H8         -2.3396   -3.8966    0.0133 H         1 <0>         0.1272
     40 H9         -4.5358   -0.2093    0.0341 H         1 <0>         0.1339
     41 H10        -2.4214    1.0428    0.0308 H         1 <0>         0.1249
     42 H11        -4.8290   -3.9703    0.0304 H         1 <0>         0.1160
     43 H12        -7.1669   -3.9436    0.0467 H         1 <0>         0.3852
     44 H13        -9.7064   -3.7129   -0.8254 H         1 <0>         0.1033
     45 H14        -9.6941   -3.7158    0.9546 H         1 <0>         0.1035
     46 H15       -10.7719   -1.4827    0.9656 H         1 <0>         0.0867
     47 H16       -10.7843   -1.4798   -0.8143 H         1 <0>         0.0861
     48 H17       -12.1972   -3.5176   -0.8078 H         1 <0>         0.0994
     49 H18       -12.1848   -3.5205    0.9721 H         1 <0>         0.1001
     50 H19       -16.8530   -0.7389   -0.8225 H         1 <0>         0.3698
     51 H20       -17.5775   -1.0063    0.6503 H         1 <0>         0.3801
     52 H21       -18.7764   -1.5552   -0.4521 H         1 <0>         0.1241
     53 H22       -21.2307   -1.7130   -0.4401 H         1 <0>         0.1435
     54 H23       -20.9790   -5.8189    0.6980 H         1 <0>         0.1458
     55 H24       -18.5234   -5.6841    0.6797 H         1 <0>         0.1498
@<TRIPOS>BOND
     1    1    2 1
     2    1   32 1
     3    1   33 1
     4    1   34 1
     5    2    3 1
     6    2    4 1
     7    3   35 1
     8    3   36 1
     9    3   37 1
    10    4    9 ar
    11    4    5 ar
    12    5    6 ar
    13    5   38 1
    14    6    7 ar
    15    6   39 1
    16    7    8 ar
    17    7   10 1
    18    8    9 ar
    19    8   40 1
    20    9   41 1
    21   10   11 2
    22   10   42 1
    23   11   12 1
    24   12   13 am
    25   12   43 1
    26   13   14 2
    27   13   15 1
    28   15   16 1
    29   15   44 1
    30   15   45 1
    31   16   17 1
    32   16   46 1
    33   16   47 1
    34   17   18 1
    35   17   48 1
    36   17   49 1
    37   18   19 1
    38   19   23 1
    39   19   20 2
    40   20   21 1
    41   21   22 2
    42   22   23 1
    43   22   25 1
    44   23   24 1
    45   24   50 1
    46   24   51 1
    47   25   30 ar
    48   25   26 ar
    49   26   27 ar
    50   26   52 1
    51   27   28 ar
    52   27   53 1
    53   28   29 ar
    54   28   31 1
    55   29   30 ar
    56   29   54 1
    57   30   55 1
@<TRIPOS>MOLECULE
ZINC05223879
   46    48     0     0     0
SMALL
USER_CHARGES
3-(acetoxymethyl)-7-[2-(2-aminothiazol-4-yl)-2-methoxyimino-acetyl]amino-8-oxo-5-thia-1-azabicyclo[4.2.0]oct-2-ene-2-carboxylic acid
@<TRIPOS>ATOM
      1 C1          2.5273   -1.1710    0.8753 C.3       1 <0>        -0.1448
      2 C2          1.1750   -0.5123    0.9673 C.2       1 <0>         0.4530
      3 O1          0.5513   -0.5550    2.0012 O.2       1 <0>        -0.5060
      4 O2          0.6635    0.1219   -0.0994 O.3       1 <0>        -0.3837
      5 C3         -0.5903    0.8286    0.0925 C.3       1 <0>         0.1365
      6 C4         -1.0689    1.3708   -1.2297 C.2       1 <0>        -0.1664
      7 C5         -2.2508    1.9681   -1.2135 C.2       1 <0>         0.1039
      8 N1         -2.7611    2.5590   -2.3814 N.am      1 <0>        -0.5549
      9 C6         -2.3420    2.2556   -3.7869 C.3       1 <0>         0.1355
     10 H1         -2.7724    1.3663   -4.2472 H         1 <0>         0.1340
     11 C7         -3.0170    3.5752   -4.1461 C.3       1 <0>         0.1221
     12 H2         -2.3153    4.3818   -4.3584 H         1 <0>         0.1548
     13 C8         -3.5517    3.5907   -2.7241 C.2       1 <0>         0.5357
     14 O3         -4.3678    4.2658   -2.1330 O.2       1 <0>        -0.4407
     15 N2         -4.0609    3.4432   -5.1654 N.am      1 <0>        -0.6860
     16 C9         -4.3864    4.4990   -5.9373 C.2       1 <0>         0.5397
     17 O4         -3.7464    5.5289   -5.8592 O.2       1 <0>        -0.5038
     18 C10        -5.5247    4.4038   -6.8812 C.2       1 <0>         0.1747
     19 N3         -5.7645    5.3775   -7.7129 N.2       1 <0>        -0.2750
     20 O5         -4.8755    6.4769   -7.7911 O.3       1 <0>        -0.1823
     21 C11        -5.2612    7.4697   -8.7439 C.3       1 <0>         0.0329
     22 C12        -6.3886    3.2036   -6.8791 C.2       1 <0>         0.1339
     23 C13        -7.3688    3.0534   -7.8235 C.2       1 <0>        -0.1803
     24 S1         -8.0588    1.4765   -7.3401 S.3       1 <0>         0.0179
     25 C14        -6.9847    1.1777   -5.9434 C.2       1 <0>         0.4017
     26 N4         -6.2193    2.2524   -5.9618 N.2       1 <0>        -0.5815
     27 N5         -6.9590    0.0999   -5.0743 N.pl3     1 <0>        -0.7877
     28 S2         -0.5179    2.2916   -3.7655 S.3       1 <0>        -0.2390
     29 C15        -0.1509    1.1593   -2.3892 C.3       1 <0>        -0.0142
     30 C16        -3.0311    2.0179    0.0361 C.2       1 <0>         0.4854
     31 O6         -4.1596    2.4683    0.0301 O.co2     1 <0>        -0.5946
     32 H3          3.2911   -0.4856    1.2428 H         1 <0>         0.0987
     33 H4          2.5316   -2.0778    1.4801 H         1 <0>         0.0960
     34 H5          2.7374   -1.4260   -0.1634 H         1 <0>         0.0876
     35 H6         -0.4399    1.6526    0.7900 H         1 <0>         0.0986
     36 H7         -1.3359    0.1430    0.4953 H         1 <0>         0.1113
     37 H8         -4.5179    2.5960   -5.2847 H         1 <0>         0.4209
     38 H9         -5.3071    7.0220   -9.7366 H         1 <0>         0.0518
     39 H10        -6.2411    7.8666   -8.4786 H         1 <0>         0.0527
     40 H11        -4.5296    8.2776   -8.7431 H         1 <0>         0.1029
     41 H12        -7.6477    3.7070   -8.6367 H         1 <0>         0.2063
     42 H13        -7.5889   -0.6291   -5.1869 H         1 <0>         0.4247
     43 H14        -6.3110    0.0740   -4.3529 H         1 <0>         0.4233
     44 H15         0.8762    1.3204   -2.0620 H         1 <0>         0.1272
     45 H16        -0.2538    0.1323   -2.7398 H         1 <0>         0.0968
     46 O7         -2.4929    1.5638    1.1853 O.co2     1 <0>        -0.7193
@<TRIPOS>BOND
     1    1    2 1
     2    1   32 1
     3    1   33 1
     4    1   34 1
     5    2    3 2
     6    2    4 1
     7    4    5 1
     8    5    6 1
     9    5   35 1
    10    5   36 1
    11    6   29 1
    12    6    7 2
    13    7    8 1
    14    7   30 1
    15    8   13 am
    16    8    9 1
    17    9   10 1
    18    9   11 1
    19    9   28 1
    20   11   12 1
    21   11   13 1
    22   11   15 1
    23   13   14 2
    24   15   16 am
    25   15   37 1
    26   16   17 2
    27   16   18 1
    28   18   19 2
    29   18   22 1
    30   19   20 1
    31   20   21 1
    32   21   38 1
    33   21   39 1
    34   21   40 1
    35   22   26 1
    36   22   23 2
    37   23   24 1
    38   23   41 1
    39   24   25 1
    40   25   26 2
    41   25   27 1
    42   27   42 1
    43   27   43 1
    44   28   29 1
    45   29   44 1
    46   29   45 1
    47   30   31 2
    48   30   46 1
@<TRIPOS>MOLECULE
ZINC12659521
   79    82     0     0     0
SMALL
USER_CHARGES
(2R)-2-[[2-[[2-[[(8R,9S,10R,13S,14S,17R)-17-hydroxy-10,13-dimethyl-1,2,6,7,8,9,11,12,14,15,16,17-dodecahydrocyclopenta[a]phenanthren-3-ylidene]amino]oxyacetyl]amino]acetyl]amino]-3-methyl-butanoic acid
@<TRIPOS>ATOM
      1 C1         -6.4149   12.8423   11.4162 C.3       1 <0>        -0.1393
      2 C2         -5.1163   12.5932   12.1860 C.3       1 <0>        -0.0918
      3 C3         -4.9043   11.0874   12.3547 C.3       1 <0>        -0.1334
      4 C4         -3.9407   13.1899   11.4096 C.3       1 <0>         0.1048
      5 H1         -3.0072   12.9360   11.9119 H         1 <0>         0.0895
      6 C5         -4.0873   14.6886   11.3495 C.2       1 <0>         0.4657
      7 O1         -4.1718   15.2449   10.2803 O.co2     1 <0>        -0.6342
      8 N1         -3.9271   12.6456   10.0495 N.am      1 <0>        -0.6875
      9 C6         -3.3244   11.4659    9.8018 C.2       1 <0>         0.5021
     10 O2         -2.7933   10.8548   10.7048 O.2       1 <0>        -0.5489
     11 C7         -3.3104   10.9060    8.4027 C.3       1 <0>         0.1015
     12 N2         -2.6001    9.6248    8.3965 N.am      1 <0>        -0.7100
     13 C8         -2.4619    8.9364    7.2461 C.2       1 <0>         0.5191
     14 O3         -2.9257    9.3776    6.2160 O.2       1 <0>        -0.5256
     15 C9         -1.7312    7.6184    7.2397 C.3       1 <0>         0.0600
     16 O4         -1.7179    7.0875    5.9131 O.3       1 <0>        -0.2125
     17 N3         -1.0515    5.8435    5.7972 N.2       1 <0>        -0.3408
     18 C10        -0.9704    5.2570    4.6450 C.2       1 <0>         0.1702
     19 C11        -0.2676    3.9239    4.4703 C.3       1 <0>        -0.0588
     20 C12        -1.2247    2.9970    3.7508 C.3       1 <0>        -0.1121
     21 C13        -1.7285    3.5617    2.4454 C.3       1 <0>        -0.0199
     22 C14        -0.8674    3.1174    1.2620 C.3       1 <0>        -0.0629
     23 H2          0.1327    3.5378    1.3677 H         1 <0>         0.0703
     24 C15        -0.7550    1.5960    1.2556 C.3       1 <0>        -0.1258
     25 C16        -0.0132    1.0876    0.0091 C.3       1 <0>        -0.0909
     26 C17        -0.7675    1.5988   -1.2033 C.3       1 <0>        -0.0575
     27 C18        -0.6592    3.1475   -1.1916 C.3       1 <0>        -0.0790
     28 H3          0.3798    3.4559   -1.0754 H         1 <0>         0.0787
     29 C19        -1.5050    3.6456   -0.0342 C.3       1 <0>        -0.0784
     30 H4         -2.5194    3.2580   -0.1281 H         1 <0>         0.0865
     31 C20        -1.5241    5.1743   -0.0188 C.3       1 <0>        -0.1098
     32 C21        -2.4038    5.6743    1.1328 C.3       1 <0>        -0.0912
     33 C22        -1.8818    5.0504    2.4164 C.2       1 <0>        -0.0553
     34 C23        -1.5567    5.8465    3.4254 C.2       1 <0>        -0.1689
     35 C24        -1.1685    3.5049   -2.5923 C.3       1 <0>        -0.1154
     36 C25        -0.5062    2.4240   -3.4896 C.3       1 <0>        -0.1565
     37 C26        -0.2031    1.2142   -2.5671 C.3       1 <0>         0.1105
     38 H5         -0.6976    0.3178   -2.9413 H         1 <0>         0.0560
     39 O5          1.2071    1.0019   -2.4773 O.3       1 <0>        -0.5602
     40 C27        -2.2366    1.1810   -1.1137 C.3       1 <0>        -0.1513
     41 C28        -3.1215    2.9716    2.2171 C.3       1 <0>        -0.1538
     42 H6         -6.3514   12.3721   10.4349 H         1 <0>         0.0465
     43 H7         -7.2524   12.4172   11.9693 H         1 <0>         0.0461
     44 H8         -6.5659   13.9151   11.2960 H         1 <0>         0.0588
     45 H9         -5.1797   13.0634   13.1673 H         1 <0>         0.0851
     46 H10        -4.8409   10.6172   11.3734 H         1 <0>         0.0501
     47 H11        -3.9792   10.9099   12.9031 H         1 <0>         0.0558
     48 H12        -5.7418   10.6623   12.9079 H         1 <0>         0.0389
     49 H13        -4.3519   13.1343    9.3273 H         1 <0>         0.4075
     50 H14        -2.8047   11.6051    7.7367 H         1 <0>         0.0999
     51 H15        -4.3346   10.7553    8.0615 H         1 <0>         0.0980
     52 H16        -2.2291    9.2719    9.2204 H         1 <0>         0.4136
     53 H17        -2.2369    6.9193    7.9058 H         1 <0>         0.0883
     54 H18        -0.7070    7.7692    7.5810 H         1 <0>         0.0887
     55 H19         0.6346    4.0567    3.8731 H         1 <0>         0.0926
     56 H20        -0.0082    3.5117    5.4455 H         1 <0>         0.0890
     57 H21        -2.0759    2.8006    4.4027 H         1 <0>         0.0701
     58 H22        -0.7091    2.0571    3.5534 H         1 <0>         0.0867
     59 H23        -1.7567    1.1665    1.2732 H         1 <0>         0.0710
     60 H24        -0.2157    1.2741    2.1464 H         1 <0>         0.0666
     61 H25         0.0017   -0.0022    0.0047 H         1 <0>         0.0602
     62 H26         1.0066    1.4726    0.0013 H         1 <0>         0.0700
     63 H27        -0.5085    5.5476    0.1131 H         1 <0>         0.0640
     64 H28        -1.9230    5.5409   -0.9646 H         1 <0>         0.0669
     65 H29        -3.4373    5.3698    0.9675 H         1 <0>         0.0770
     66 H30        -2.3449    6.7607    1.1994 H         1 <0>         0.0744
     67 H31        -1.7184    6.9121    3.3558 H         1 <0>         0.1309
     68 H32        -2.2551    3.4312   -2.6380 H         1 <0>         0.0683
     69 H33        -0.8387    4.5034   -2.8794 H         1 <0>         0.0661
     70 H34        -1.1917    2.1246   -4.2824 H         1 <0>         0.0654
     71 H35         0.4177    2.8101   -3.9203 H         1 <0>         0.0718
     72 H36         1.6218    0.7545   -3.3151 H         1 <0>         0.3745
     73 H37        -2.6549    1.5242   -0.1675 H         1 <0>         0.0746
     74 H38        -2.7920    1.6262   -1.9392 H         1 <0>         0.0567
     75 H39        -2.3096    0.0949   -1.1706 H         1 <0>         0.0536
     76 H40        -3.0529    1.8847    2.1725 H         1 <0>         0.0638
     77 H41        -3.7777    3.2609    3.0380 H         1 <0>         0.0550
     78 H42        -3.5265    3.3489    1.2781 H         1 <0>         0.0640
     79 O6         -4.1240   15.4053   12.4838 O.co2     1 <0>        -0.7538
@<TRIPOS>BOND
     1    1    2 1
     2    1   42 1
     3    1   43 1
     4    1   44 1
     5    2    3 1
     6    2    4 1
     7    2   45 1
     8    3   46 1
     9    3   47 1
    10    3   48 1
    11    4    5 1
    12    4    6 1
    13    4    8 1
    14    6    7 2
    15    6   79 1
    16    8    9 am
    17    8   49 1
    18    9   10 2
    19    9   11 1
    20   11   12 1
    21   11   50 1
    22   11   51 1
    23   12   13 am
    24   12   52 1
    25   13   14 2
    26   13   15 1
    27   15   16 1
    28   15   53 1
    29   15   54 1
    30   16   17 1
    31   17   18 2
    32   18   34 1
    33   18   19 1
    34   19   20 1
    35   19   55 1
    36   19   56 1
    37   20   21 1
    38   20   57 1
    39   20   58 1
    40   21   33 1
    41   21   22 1
    42   21   41 1
    43   22   23 1
    44   22   29 1
    45   22   24 1
    46   24   25 1
    47   24   59 1
    48   24   60 1
    49   25   26 1
    50   25   61 1
    51   25   62 1
    52   26   37 1
    53   26   27 1
    54   26   40 1
    55   27   28 1
    56   27   29 1
    57   27   35 1
    58   29   30 1
    59   29   31 1
    60   31   32 1
    61   31   63 1
    62   31   64 1
    63   32   33 1
    64   32   65 1
    65   32   66 1
    66   33   34 2
    67   34   67 1
    68   35   36 1
    69   35   68 1
    70   35   69 1
    71   36   37 1
    72   36   70 1
    73   36   71 1
    74   37   38 1
    75   37   39 1
    76   39   72 1
    77   40   73 1
    78   40   74 1
    79   40   75 1
    80   41   76 1
    81   41   77 1
    82   41   78 1
@<TRIPOS>MOLECULE
ZINC16990727
   60    62     0     0     0
SMALL
USER_CHARGES
(1S,2R,3S,4S)-3,4-dihydroxy-3-(hydroxymethyl)-6,7-dimethoxy-1-(3,4,5-trimethoxyphenyl)tetralin-2-carboxylic acid
@<TRIPOS>ATOM
      1 C1         -1.8878   -2.1076    3.1256 C.3       1 <0>         0.0249
      2 O1         -1.5440   -0.9165    2.4148 O.3       1 <0>        -0.3051
      3 C2         -0.6218   -0.0988    2.9897 C.ar      1 <0>         0.1470
      4 C3         -0.0565   -0.4392    4.2093 C.ar      1 <0>        -0.2175
      5 C4          0.8771    0.3939    4.7969 C.ar      1 <0>         0.0182
      6 C5          1.2548    1.5662    4.1695 C.ar      1 <0>        -0.2105
      7 C6          0.6982    1.9111    2.9473 C.ar      1 <0>         0.1473
      8 C7         -0.2408    1.0763    2.3531 C.ar      1 <0>         0.0182
      9 O2         -0.7898    1.4116    1.1538 O.3       1 <0>        -0.3143
     10 C8         -0.1177    0.9491   -0.0194 C.3       1 <0>         0.0348
     11 O3          1.0708    3.0645    2.3305 O.3       1 <0>        -0.3060
     12 C9          2.0405    3.8737    2.9991 C.3       1 <0>         0.0236
     13 C10         1.4850    0.0227    6.1250 C.3       1 <0>         0.0105
     14 H1          2.1861    0.7999    6.4290 H         1 <0>         0.1159
     15 C11         0.3929   -0.0923    7.1564 C.ar      1 <0>        -0.0325
     16 C12        -0.6090    0.8706    7.1450 C.ar      1 <0>        -0.1657
     17 C13        -1.6377    0.8262    8.0673 C.ar      1 <0>         0.1035
     18 C14        -1.6679   -0.1925    9.0155 C.ar      1 <0>         0.0931
     19 C15        -0.6703   -1.1493    9.0222 C.ar      1 <0>        -0.1688
     20 C16         0.3605   -1.1024    8.0915 C.ar      1 <0>        -0.1011
     21 C17         1.4054   -2.1862    8.1503 C.3       1 <0>         0.1291
     22 H2          1.0018   -3.0987    7.7113 H         1 <0>         0.0658
     23 C18         2.6570   -1.7683    7.3813 C.3       1 <0>         0.1769
     24 C19         2.2326   -1.3016    5.9840 C.3       1 <0>        -0.1069
     25 H3          1.5781   -2.0463    5.5312 H         1 <0>         0.0810
     26 C20         3.4530   -1.1061    5.1217 C.2       1 <0>         0.4791
     27 O4          4.0814   -0.0763    5.1886 O.co2     1 <0>        -0.6166
     28 C21         3.6090   -2.9599    7.2597 C.3       1 <0>         0.0549
     29 O5          3.9749   -3.4125    8.5648 O.3       1 <0>        -0.5611
     30 O6          3.3093   -0.6985    8.0685 O.3       1 <0>        -0.5293
     31 O7          1.7519   -2.4331    9.5145 O.3       1 <0>        -0.5339
     32 O8         -2.6734   -0.2464    9.9296 O.3       1 <0>        -0.3082
     33 C22        -2.6373   -1.3208   10.8711 C.3       1 <0>         0.0268
     34 O9         -2.6147    1.7719    8.0481 O.3       1 <0>        -0.3080
     35 C23        -2.5168    2.7856    7.0456 C.3       1 <0>         0.0256
     36 H4         -2.6313   -2.6674    2.5583 H         1 <0>         0.0984
     37 H5         -0.9965   -2.7204    3.2603 H         1 <0>         0.0587
     38 H6         -2.2978   -1.8434    4.1004 H         1 <0>         0.0547
     39 H7         -0.3488   -1.3544    4.7025 H         1 <0>         0.1301
     40 H8          1.9843    2.2145    4.6321 H         1 <0>         0.1381
     41 H9         -0.0778   -0.1402   -0.0097 H         1 <0>         0.0431
     42 H10         0.8959    1.3495   -0.0391 H         1 <0>         0.0436
     43 H11        -0.6583    1.2850   -0.9042 H         1 <0>         0.0868
     44 H12         2.2478    4.7611    2.4011 H         1 <0>         0.0981
     45 H13         1.6539    4.1740    3.9730 H         1 <0>         0.0553
     46 H14         2.9595    3.3031    3.1333 H         1 <0>         0.0632
     47 H15        -0.5835    1.6608    6.4093 H         1 <0>         0.1360
     48 H16        -0.6919   -1.9399    9.7577 H         1 <0>         0.1295
     49 H17         3.1133   -3.7674    6.7209 H         1 <0>         0.0496
     50 H18         4.5037   -2.6562    6.7164 H         1 <0>         0.0694
     51 H19         4.5786   -4.1679    8.5643 H         1 <0>         0.3697
     52 H20         3.5896   -0.9211    8.9668 H         1 <0>         0.3763
     53 H21         1.0092   -2.7200   10.0632 H         1 <0>         0.3635
     54 H22        -2.6739   -2.2714   10.3392 H         1 <0>         0.0521
     55 H23        -1.7165   -1.2644   11.4516 H         1 <0>         0.0539
     56 H24        -3.4941   -1.2459   11.5408 H         1 <0>         0.0971
     57 H25        -3.3565    3.4740    7.1418 H         1 <0>         0.0983
     58 H26        -1.5824    3.3324    7.1719 H         1 <0>         0.0547
     59 H27        -2.5370    2.3236    6.0586 H         1 <0>         0.0562
     60 O10         3.8421   -2.0762    4.2795 O.co2     1 <0>        -0.7671
@<TRIPOS>BOND
     1    1    2 1
     2    1   36 1
     3    1   37 1
     4    1   38 1
     5    2    3 1
     6    3    8 ar
     7    3    4 ar
     8    4    5 ar
     9    4   39 1
    10    5    6 ar
    11    5   13 1
    12    6    7 ar
    13    6   40 1
    14    7    8 ar
    15    7   11 1
    16    8    9 1
    17    9   10 1
    18   10   41 1
    19   10   42 1
    20   10   43 1
    21   11   12 1
    22   12   44 1
    23   12   45 1
    24   12   46 1
    25   13   14 1
    26   13   24 1
    27   13   15 1
    28   15   20 ar
    29   15   16 ar
    30   16   17 ar
    31   16   47 1
    32   17   18 ar
    33   17   34 1
    34   18   19 ar
    35   18   32 1
    36   19   20 ar
    37   19   48 1
    38   20   21 1
    39   21   22 1
    40   21   23 1
    41   21   31 1
    42   23   24 1
    43   23   28 1
    44   23   30 1
    45   24   25 1
    46   24   26 1
    47   26   27 2
    48   26   60 1
    49   28   29 1
    50   28   49 1
    51   28   50 1
    52   29   51 1
    53   30   52 1
    54   31   53 1
    55   32   33 1
    56   33   54 1
    57   33   55 1
    58   33   56 1
    59   34   35 1
    60   35   57 1
    61   35   58 1
    62   35   59 1
@<TRIPOS>MOLECULE
ZINC38570182
   63    66     0     0     0
SMALL
USER_CHARGES

@<TRIPOS>ATOM
      1 C1          0.8196   -0.8013    1.1057 C.3       1 <0>        -0.1330
      2 C2          0.1269   -0.4761   -0.2192 C.3       1 <0>        -0.1014
      3 C3          0.6245   -1.4341   -1.3034 C.3       1 <0>        -0.1453
      4 C4         -1.3863   -0.6330   -0.0555 C.3       1 <0>         0.1348
      5 H1         -1.7316    0.0042    0.7586 H         1 <0>         0.1111
      6 C5         -2.0743   -0.2309   -1.3346 C.2       1 <0>         0.5045
      7 O1         -2.5112   -1.0810   -2.0812 O.2       1 <0>        -0.5570
      8 N1         -2.2040    1.0732   -1.6488 N.am      1 <0>        -0.6903
      9 C6         -2.7681    1.4621   -2.9437 C.3       1 <0>         0.0512
     10 C7         -2.8036    2.9652   -3.0452 C.2       1 <0>         0.4900
     11 O2         -2.3955    3.6484   -2.1215 O.co2     1 <0>        -0.6899
     12 O3         -3.2404    3.4982   -4.0510 O.co2     1 <0>        -0.6879
     13 N2         -1.7021   -2.0304    0.2505 N.am      1 <0>        -0.7016
     14 C8         -1.6489   -2.4702    1.5234 C.2       1 <0>         0.5149
     15 O4         -1.3396   -1.7090    2.4155 O.2       1 <0>        -0.5113
     16 C9         -1.9738   -3.9077    1.8382 C.3       1 <0>         0.1282
     17 H2         -1.2837   -4.5613    1.3047 H         1 <0>         0.1331
     18 C10        -3.4076   -4.2140    1.4009 C.3       1 <0>        -0.0570
     19 C11        -3.6918   -5.6803    1.6021 C.2       1 <0>        -0.1736
     20 C12        -4.1402   -6.3188    2.8420 C.ar      1 <0>        -0.0959
     21 C13        -4.4295   -5.8506    4.1248 C.ar      1 <0>        -0.0817
     22 C14        -4.8381   -6.7269    5.0907 C.ar      1 <0>        -0.1398
     23 C15        -4.9673   -8.0793    4.8066 C.ar      1 <0>        -0.0990
     24 C16        -4.6869   -8.5627    3.5471 C.ar      1 <0>        -0.1299
     25 C17        -4.2700   -7.6888    2.5487 C.ar      1 <0>         0.0971
     26 N3         -3.9233   -7.8557    1.2266 N.pl3     1 <0>        -0.5928
     27 C18        -3.5875   -6.6480    0.6778 C.2       1 <0>         0.0675
     28 N4         -1.8443   -4.1332    3.2799 N.am      1 <0>        -0.5583
     29 C19        -0.9576   -5.0412    3.7352 C.2       1 <0>         0.5417
     30 O5         -0.3725   -5.7644    2.9577 O.2       1 <0>        -0.4803
     31 C20        -0.6985   -5.1517    5.2076 C.3       1 <0>        -0.1156
     32 H3          0.1825   -4.5524    5.4373 H         1 <0>         0.1670
     33 C21        -0.4180   -6.5599    5.6302 C.2       1 <0>        -0.0839
     34 C22        -0.8226   -7.0161    6.8165 C.2       1 <0>        -0.1423
     35 C23        -1.5575   -6.2035    7.7104 C.2       1 <0>        -0.0267
     36 C24        -2.0738   -5.0139    7.3036 C.2       1 <0>        -0.1514
     37 C25        -1.8512   -4.5919    5.9899 C.2       1 <0>         0.2935
     38 N5         -2.6801   -3.7356    5.4338 N.2       1 <0>        -0.5229
     39 C26        -2.6065   -3.4288    4.1333 C.2       1 <0>         0.6632
     40 O6         -3.2517   -2.4875    3.7099 O.2       1 <0>        -0.4493
     41 H4          1.8829   -0.5755    1.0247 H         1 <0>         0.0491
     42 H5          0.3803   -0.2008    1.9023 H         1 <0>         0.0664
     43 H6          0.6891   -1.8591    1.3339 H         1 <0>         0.0479
     44 H7          0.3567    0.5497   -0.5072 H         1 <0>         0.0880
     45 H8          0.3946   -2.4599   -1.0154 H         1 <0>         0.0542
     46 H9          0.1310   -1.2024   -2.2473 H         1 <0>         0.0591
     47 H10         1.7025   -1.3223   -1.4201 H         1 <0>         0.0558
     48 H11        -1.9238    1.7544   -1.0176 H         1 <0>         0.4102
     49 H12        -2.1497    1.0583   -3.7454 H         1 <0>         0.0664
     50 H13        -3.7805    1.0680   -3.0321 H         1 <0>         0.0676
     51 H14        -1.9495   -2.6392   -0.4630 H         1 <0>         0.4084
     52 H15        -4.1034   -3.6239    1.9973 H         1 <0>         0.0951
     53 H16        -3.5278   -3.9619    0.3472 H         1 <0>         0.0976
     54 H17        -4.3305   -4.7998    4.3534 H         1 <0>         0.1195
     55 H18        -5.0618   -6.3643    6.0830 H         1 <0>         0.1208
     56 H19        -5.2905   -8.7596    5.5806 H         1 <0>         0.1237
     57 H20        -4.7902   -9.6169    3.3360 H         1 <0>         0.1180
     58 H21        -3.2812   -6.4964   -0.3467 H         1 <0>         0.1734
     59 H22        -3.9214   -8.7026    0.7537 H         1 <0>         0.4161
     60 H23         0.1203   -7.2174    4.9637 H         1 <0>         0.1447
     61 H24        -0.5835   -8.0301    7.1010 H         1 <0>         0.1390
     62 H25        -1.7099   -6.5317    8.7279 H         1 <0>         0.1432
     63 H26        -2.6583   -4.4127    7.9843 H         1 <0>         0.1561
@<TRIPOS>BOND
     1    1    2 1
     2    1   41 1
     3    1   42 1
     4    1   43 1
     5    2    3 1
     6    2    4 1
     7    2   44 1
     8    3   45 1
     9    3   46 1
    10    3   47 1
    11    4    5 1
    12    4    6 1
    13    4   13 1
    14    6    7 2
    15    6    8 am
    16    8    9 1
    17    8   48 1
    18    9   10 1
    19    9   49 1
    20    9   50 1
    21   10   11 2
    22   10   12 1
    23   13   14 am
    24   13   51 1
    25   14   15 2
    26   14   16 1
    27   16   17 1
    28   16   18 1
    29   16   28 1
    30   18   52 1
    31   18   53 1
    32   18   19 1
    33   19   20 1
    34   19   27 2
    35   20   21 ar
    36   20   25 ar
    37   21   22 ar
    38   21   54 1
    39   22   23 ar
    40   22   55 1
    41   23   24 ar
    42   23   56 1
    43   24   25 ar
    44   24   57 1
    45   25   26 1
    46   26   59 1
    47   26   27 1
    48   27   58 1
    49   28   39 am
    50   28   29 am
    51   29   30 2
    52   29   31 1
    53   31   32 1
    54   31   37 1
    55   31   33 1
    56   33   34 2
    57   33   60 1
    58   34   35 1
    59   34   61 1
    60   35   36 2
    61   35   62 1
    62   36   37 1
    63   36   63 1
    64   37   38 2
    65   38   39 1
    66   39   40 2
@<TRIPOS>MOLECULE
ZINC43737448
   81    84     0     0     0
SMALL
USER_CHARGES

@<TRIPOS>ATOM
      1 C1          0.2767    1.2859   -0.4314 C.3       1 <0>        -0.1435
      2 C2          0.2758   -0.2437   -0.3958 C.3       1 <0>        -0.0869
      3 C3          0.9969   -0.7249    0.8649 C.3       1 <0>        -0.1426
      4 C4         -1.1670   -0.7528   -0.3837 C.3       1 <0>         0.0787
      5 H1         -1.6805   -0.3685    0.4977 H         1 <0>         0.0826
      6 C5         -1.8773   -0.2788   -1.6254 C.2       1 <0>         0.4918
      7 O1         -2.1798   -1.0764   -2.4966 O.co2     1 <0>        -0.6890
      8 O2         -2.1495    0.9021   -1.7588 O.co2     1 <0>        -0.6893
      9 N1         -1.1678   -2.2174   -0.3495 N.am      1 <0>        -0.6862
     10 C6         -2.2260   -2.8789    0.1595 C.2       1 <0>         0.5090
     11 O3         -3.1775   -2.2618    0.5892 O.2       1 <0>        -0.5479
     12 C7         -2.2268   -4.3855    0.1946 C.3       1 <0>         0.1047
     13 N2         -3.4788   -4.8594    0.7897 N.am      1 <0>        -0.7082
     14 C8         -3.7028   -6.1816    0.9247 C.2       1 <0>         0.5200
     15 O4         -2.8678   -6.9790    0.5535 O.2       1 <0>        -0.5291
     16 C9         -4.9907   -6.6690    1.5369 C.3       1 <0>         0.0601
     17 O5         -4.9915   -8.0976    1.5702 O.3       1 <0>        -0.2123
     18 N3         -6.1641   -8.6600    2.1303 N.2       1 <0>        -0.3438
     19 C10        -6.2877   -9.9479    2.2177 C.2       1 <0>         0.1756
     20 C11        -5.1806  -10.8442    1.7258 C.3       1 <0>        -0.1166
     21 C12        -5.2556  -12.1945    2.4413 C.3       1 <0>        -0.1027
     22 C13        -6.6505  -12.7926    2.3004 C.3       1 <0>        -0.0265
     23 C14        -6.7504  -14.0931    3.1145 C.3       1 <0>        -0.0673
     24 H2         -7.5385  -14.6925    2.6597 H         1 <0>         0.0831
     25 C15        -5.4295  -14.8483    3.0856 C.3       1 <0>        -0.1113
     26 C16        -5.5228  -16.2011    3.8061 C.3       1 <0>        -0.1035
     27 C17        -6.6202  -16.1955    4.8347 C.3       1 <0>        -0.0253
     28 C18        -6.7520  -14.8169    5.5114 C.3       1 <0>        -0.0727
     29 H3         -5.7852  -14.5451    5.9810 H         1 <0>         0.0702
     30 C19        -7.1274  -13.7278    4.5490 C.3       1 <0>        -0.0689
     31 H4         -6.5221  -12.8363    4.8136 H         1 <0>         0.0658
     32 C20        -8.5836  -13.2996    4.6425 C.3       1 <0>        -0.1070
     33 C21        -8.9474  -12.4066    3.4539 C.3       1 <0>        -0.0869
     34 C22        -7.6860  -11.8390    2.8464 C.2       1 <0>        -0.0502
     35 C23        -7.5035  -10.5283    2.7984 C.2       1 <0>        -0.1227
     36 C24        -7.7590  -15.0991    6.6378 C.3       1 <0>        -0.1160
     37 C25        -7.3934  -16.5294    7.1140 C.3       1 <0>        -0.1461
     38 C26        -6.4203  -17.1120    6.0557 C.3       1 <0>         0.2411
     39 C27        -5.0478  -17.0743    6.5670 C.1       1 <0>        -0.2065
     40 C28        -3.9480  -17.0440    6.9766 C.1       1 <0>        -0.1796
     41 O6         -6.7990  -18.4479    5.7222 O.3       1 <0>        -0.5399
     42 C29        -7.9453  -16.6343    4.1873 C.3       1 <0>        -0.1364
     43 C30        -6.9552  -13.0961    0.8323 C.3       1 <0>        -0.1387
     44 H5          1.3045    1.6485   -0.4401 H         1 <0>         0.0402
     45 H6         -0.2371    1.6286   -1.3296 H         1 <0>         0.0878
     46 H7         -0.2368    1.6701    0.4499 H         1 <0>         0.0485
     47 H8          0.7893   -0.6280   -1.2771 H         1 <0>         0.0664
     48 H9          0.4835   -0.3406    1.7463 H         1 <0>         0.0512
     49 H10         0.9963   -1.8146    0.8903 H         1 <0>         0.0489
     50 H11         2.0248   -0.3622    0.8563 H         1 <0>         0.0500
     51 H12        -0.4068   -2.7109   -0.6933 H         1 <0>         0.3938
     52 H13        -2.1376   -4.7727   -0.8204 H         1 <0>         0.1001
     53 H14        -1.3852   -4.7355    0.7922 H         1 <0>         0.0951
     54 H15        -4.1466   -4.2216    1.0866 H         1 <0>         0.4142
     55 H16        -5.0799   -6.2819    2.5519 H         1 <0>         0.0888
     56 H17        -5.8324   -6.3190    0.9393 H         1 <0>         0.0904
     57 H18        -5.2595  -10.9780    0.6490 H         1 <0>         0.0903
     58 H19        -4.2167  -10.3745    1.9488 H         1 <0>         0.0877
     59 H20        -4.5184  -12.8731    2.0046 H         1 <0>         0.0777
     60 H21        -5.0220  -12.0551    3.4999 H         1 <0>         0.0682
     61 H22        -5.1270  -15.0205    2.0484 H         1 <0>         0.0655
     62 H23        -4.6547  -14.2449    3.5699 H         1 <0>         0.0634
     63 H24        -5.7332  -16.9827    3.0564 H         1 <0>         0.0617
     64 H25        -4.5459  -16.4299    4.2369 H         1 <0>         0.0629
     65 H26        -9.2312  -14.1714    4.6379 H         1 <0>         0.0704
     66 H27        -8.7351  -12.7377    5.5634 H         1 <0>         0.0663
     67 H28        -9.4812  -12.9954    2.7102 H         1 <0>         0.0796
     68 H29        -9.5819  -11.5908    3.8006 H         1 <0>         0.0746
     69 H30        -8.2657   -9.8736    3.1960 H         1 <0>         0.1272
     70 H31        -7.6223  -14.3825    7.4525 H         1 <0>         0.0660
     71 H32        -8.7839  -15.0598    6.2768 H         1 <0>         0.0786
     72 H33        -6.9002  -16.4862    8.0848 H         1 <0>         0.0678
     73 H34        -8.2886  -17.1467    7.1761 H         1 <0>         0.0813
     74 H35        -2.9644  -17.0170    7.3430 H         1 <0>         0.2182
     75 H36        -6.6975  -19.0784    6.4484 H         1 <0>         0.3761
     76 H37        -7.8024  -17.5865    3.6765 H         1 <0>         0.0616
     77 H38        -8.7070  -16.7467    4.9588 H         1 <0>         0.0568
     78 H39        -8.2654  -15.8806    3.4679 H         1 <0>         0.0632
     79 H40        -6.2238  -13.8074    0.4488 H         1 <0>         0.0625
     80 H41        -7.9549  -13.5225    0.7493 H         1 <0>         0.0589
     81 H42        -6.9042  -12.1744    0.2526 H         1 <0>         0.0593
@<TRIPOS>BOND
     1    1    2 1
     2    1   44 1
     3    1   45 1
     4    1   46 1
     5    2    3 1
     6    2    4 1
     7    2   47 1
     8    3   48 1
     9    3   49 1
    10    3   50 1
    11    4    5 1
    12    4    6 1
    13    4    9 1
    14    6    7 2
    15    6    8 1
    16    9   10 am
    17    9   51 1
    18   10   11 2
    19   10   12 1
    20   12   13 1
    21   12   52 1
    22   12   53 1
    23   13   14 am
    24   13   54 1
    25   14   15 2
    26   14   16 1
    27   16   17 1
    28   16   55 1
    29   16   56 1
    30   17   18 1
    31   18   19 2
    32   19   35 1
    33   19   20 1
    34   20   21 1
    35   20   57 1
    36   20   58 1
    37   21   22 1
    38   21   59 1
    39   21   60 1
    40   22   34 1
    41   22   23 1
    42   22   43 1
    43   23   24 1
    44   23   30 1
    45   23   25 1
    46   25   26 1
    47   25   61 1
    48   25   62 1
    49   26   27 1
    50   26   63 1
    51   26   64 1
    52   27   38 1
    53   27   28 1
    54   27   42 1
    55   28   29 1
    56   28   30 1
    57   28   36 1
    58   30   31 1
    59   30   32 1
    60   32   33 1
    61   32   65 1
    62   32   66 1
    63   33   34 1
    64   33   67 1
    65   33   68 1
    66   34   35 2
    67   35   69 1
    68   36   37 1
    69   36   70 1
    70   36   71 1
    71   37   38 1
    72   37   72 1
    73   37   73 1
    74   38   39 1
    75   38   41 1
    76   39   40 3
    77   40   74 1
    78   41   75 1
    79   42   76 1
    80   42   77 1
    81   42   78 1
    82   43   79 1
    83   43   80 1
    84   43   81 1
@<TRIPOS>MOLECULE
ZINC04336749
   43    44     0     0     0
SMALL
USER_CHARGES
2-methyl-N-[2,2,2-trifluoro-1-[(4-methyl-2-pyridyl)amino]-1-(trifluoromethyl)ethyl]-benzamide
@<TRIPOS>ATOM
      1 C1         -1.2255   -5.5093   -3.7483 C.3       1 <0>        -0.1449
      2 C2         -1.4218   -4.1851   -3.0561 C.ar      1 <0>         0.0891
      3 C3         -2.6269   -3.5025   -3.1580 C.ar      1 <0>        -0.1624
      4 C4         -2.7747   -2.2915   -2.5123 C.ar      1 <0>         0.1630
      5 C5         -0.6241   -2.3980   -1.6813 C.ar      1 <0>         0.4667
      6 C6         -0.4058   -3.6222   -2.3054 C.ar      1 <0>        -0.2112
      7 N1          0.3882   -1.8210   -0.9234 N.pl3     1 <0>        -0.6948
      8 C7          1.6892   -2.4852   -0.8120 C.3       1 <0>         0.3269
      9 C8          2.4745   -2.2896   -2.1104 C.3       1 <0>         0.4481
     10 F1          2.7767   -0.9333   -2.2728 F         1 <0>        -0.1392
     11 F2          3.6613   -3.0282   -2.0534 F         1 <0>        -0.1422
     12 F3          1.7037   -2.7284   -3.1923 F         1 <0>        -0.1524
     13 C9          2.4728   -1.8795    0.3542 C.3       1 <0>         0.4529
     14 F4          1.7080   -1.9618    1.5227 F         1 <0>        -0.1364
     15 F5          3.6684   -2.5846    0.5288 F         1 <0>        -0.1405
     16 F6          2.7586   -0.5383    0.0774 F         1 <0>        -0.1503
     17 N2          1.4879   -3.9166   -0.5740 N.am      1 <0>        -0.7371
     18 C10         0.5858   -4.3276    0.3391 C.2       1 <0>         0.5741
     19 O1         -0.1243   -3.5160    0.9000 O.2       1 <0>        -0.4881
     20 C11         0.4599   -5.7656    0.6586 C.ar      1 <0>        -0.1586
     21 C12         1.3024   -6.6959    0.0475 C.ar      1 <0>        -0.0792
     22 C13         1.1826   -8.0356    0.3533 C.ar      1 <0>        -0.1272
     23 C14         0.2231   -8.4593    1.2560 C.ar      1 <0>        -0.0672
     24 C15        -0.6182   -7.5431    1.8614 C.ar      1 <0>        -0.1270
     25 C16        -0.5057   -6.1996    1.5681 C.ar      1 <0>        -0.0084
     26 C17        -1.4236   -5.2030    2.2278 C.3       1 <0>        -0.1306
     27 H1         -1.5249   -6.3166   -3.0800 H         1 <0>         0.1098
     28 H2         -1.8346   -5.5408   -4.6517 H         1 <0>         0.1009
     29 H3         -0.1751   -5.6282   -4.0140 H         1 <0>         0.0942
     30 H4         -3.4404   -3.9151   -3.7363 H         1 <0>         0.1884
     31 H5         -3.7117   -1.7595   -2.5852 H         1 <0>         0.2033
     32 H6          0.5441   -4.1262   -2.2048 H         1 <0>         0.1823
     33 H7          0.2331   -0.9785   -0.4683 H         1 <0>         0.4395
     34 H8          2.0039   -4.5686   -1.0735 H         1 <0>         0.4300
     35 H9          2.0487   -6.3670   -0.6605 H         1 <0>         0.1250
     36 H10         1.8361   -8.7560   -0.1162 H         1 <0>         0.1382
     37 H11         0.1304   -9.5099    1.4885 H         1 <0>         0.1373
     38 H12        -1.3650   -7.8803    2.5651 H         1 <0>         0.1377
     39 H13        -2.2531   -4.9746    1.5586 H         1 <0>         0.0720
     40 H14        -1.8107   -5.6244    3.1556 H         1 <0>         0.0685
     41 H15        -0.8710   -4.2893    2.4465 H         1 <0>         0.0989
     42 N3         -1.7984   -1.7085   -1.7665 N.ar      1 <0>        -0.5216
     43 H16        -1.9363   -0.8060   -1.2968 H         1 <0>         0.4725
@<TRIPOS>BOND
     1    1    2 1
     2    1   27 1
     3    1   28 1
     4    1   29 1
     5    2    6 ar
     6    2    3 ar
     7    3    4 ar
     8    3   30 1
     9    4   31 1
    10    4   42 ar
    11    5    6 ar
    12    5    7 1
    13    5   42 ar
    14    6   32 1
    15    7    8 1
    16    7   33 1
    17    8    9 1
    18    8   13 1
    19    8   17 1
    20    9   10 1
    21    9   11 1
    22    9   12 1
    23   13   14 1
    24   13   15 1
    25   13   16 1
    26   17   18 am
    27   17   34 1
    28   18   19 2
    29   18   20 1
    30   20   25 ar
    31   20   21 ar
    32   21   22 ar
    33   21   35 1
    34   22   23 ar
    35   22   36 1
    36   23   24 ar
    37   23   37 1
    38   24   25 ar
    39   24   38 1
    40   25   26 1
    41   26   39 1
    42   26   40 1
    43   26   41 1
    44   42   43 1
@<TRIPOS>MOLECULE
ZINC12798004
   55    58     0     0     0
SMALL
USER_CHARGES
6-methyl-2-[[[(1R)-1-(o-tolyl)ethyl]amino]methyl]-5-(p-tolyl)-3H-thieno[4,5-e]pyrimidin-4-one
@<TRIPOS>ATOM
      1 C1         -3.5799   -4.2754    0.0115 C.3       1 <0>        -0.1206
      2 C2         -3.3281   -2.7896    0.0174 C.ar      1 <0>        -0.0712
      3 C3         -3.7238   -2.0194   -1.0615 C.ar      1 <0>        -0.1205
      4 C4         -3.4964   -0.6584   -1.0614 C.ar      1 <0>        -0.0957
      5 C5         -2.8661   -0.0597    0.0286 C.ar      1 <0>        -0.0505
      6 C6         -2.4644   -0.8419    1.1106 C.ar      1 <0>        -0.0720
      7 C7         -2.7019   -2.2013    1.1016 C.ar      1 <0>        -0.1186
      8 C8         -2.6185    1.4018    0.0345 C.2       1 <0>        -0.0343
      9 C9         -3.6527    2.2771    0.0494 C.2       1 <0>        -0.1171
     10 S1         -2.8473    3.8672    0.0500 S.3       1 <0>         0.1888
     11 C10        -1.1580    3.3254    0.0305 C.2       1 <0>         0.0615
     12 C11        -1.2575    1.9246    0.0184 C.2       1 <0>        -0.1910
     13 C12        -0.0145    1.2148    0.0087 C.2       1 <0>         0.5526
     14 O1          0.0021   -0.0041    0.0020 O.2       1 <0>        -0.4756
     15 N1          1.1357    1.9137    0.0015 N.am      1 <0>        -0.6240
     16 H1          1.9810    1.4381   -0.0085 H         1 <0>         0.4265
     17 C13         1.1361    3.2714    0.0083 C.2       1 <0>         0.3493
     18 N2          0.0184    3.9469    0.0226 N.2       1 <0>        -0.4902
     19 C14         2.4488    4.0116   -0.0002 C.3       1 <0>         0.0617
     20 C15         3.4549    6.2140    0.0014 C.3       1 <0>         0.0821
     21 H2          4.1939    5.6818   -0.5976 H         1 <0>         0.1498
     22 C16         3.9704    6.3612    1.4345 C.3       1 <0>        -0.1813
     23 C17         3.2180    7.5797   -0.5900 C.ar      1 <0>        -0.1448
     24 C18         1.9549    8.1406   -0.5501 C.ar      1 <0>        -0.1256
     25 C19         1.7385    9.3948   -1.0890 C.ar      1 <0>        -0.1062
     26 C20         2.7831   10.0848   -1.6757 C.ar      1 <0>        -0.0886
     27 C21         4.0447    9.5220   -1.7198 C.ar      1 <0>        -0.1057
     28 C22         4.2620    8.2690   -1.1773 C.ar      1 <0>        -0.0511
     29 C23         5.6375    7.6552   -1.2259 C.3       1 <0>        -0.1349
     30 C24        -5.1296    1.9779    0.0619 C.3       1 <0>        -0.0771
     31 H3         -2.7266   -4.7867   -0.4344 H         1 <0>         0.0734
     32 H4         -3.7186   -4.6245    1.0347 H         1 <0>         0.0689
     33 H5         -4.4764   -4.4897   -0.5702 H         1 <0>         0.0695
     34 H6         -4.2119   -2.4843   -1.9053 H         1 <0>         0.1259
     35 H7         -3.8057   -0.0581   -1.9043 H         1 <0>         0.1202
     36 H8         -1.9718   -0.3843    1.9557 H         1 <0>         0.1126
     37 H9         -2.3949   -2.8076    1.9410 H         1 <0>         0.1238
     38 H10         3.0259    3.7381    0.8830 H         1 <0>         0.1678
     39 H11         3.0093    3.7470   -0.8968 H         1 <0>         0.1680
     40 H12         3.2314    6.8934    2.0335 H         1 <0>         0.0874
     41 H13         4.1417    5.3734    1.8622 H         1 <0>         0.0853
     42 H14         4.9052    6.9218    1.4285 H         1 <0>         0.1116
     43 H15         1.1381    7.6001   -0.0951 H         1 <0>         0.1206
     44 H16         0.7526    9.8345   -1.0549 H         1 <0>         0.1357
     45 H17         2.6132   11.0634   -2.0998 H         1 <0>         0.1362
     46 H18         4.8606   10.0608   -2.1785 H         1 <0>         0.1368
     47 H19         5.7446    7.0758   -2.1429 H         1 <0>         0.0825
     48 H20         6.3887    8.4447   -1.2050 H         1 <0>         0.0827
     49 H21         5.7740    7.0010   -0.3648 H         1 <0>         0.0700
     50 H22        -5.6896    2.9130    0.0725 H         1 <0>         0.0824
     51 H23        -5.3923    1.4072   -0.8289 H         1 <0>         0.0926
     52 H24        -5.3752    1.3972    0.9510 H         1 <0>         0.0930
     53 N3          2.1853    5.4630    0.0095 N.4       1 <0>        -0.5079
     54 H25         1.6540    5.7051    0.8541 H         1 <0>         0.4413
     55 H26         1.6383    5.7135   -0.8225 H         1 <0>         0.4437
@<TRIPOS>BOND
     1    1    2 1
     2    1   31 1
     3    1   32 1
     4    1   33 1
     5    2    7 ar
     6    2    3 ar
     7    3    4 ar
     8    3   34 1
     9    4    5 ar
    10    4   35 1
    11    5    6 ar
    12    5    8 1
    13    6    7 ar
    14    6   36 1
    15    7   37 1
    16    8   12 1
    17    8    9 2
    18    9   10 1
    19    9   30 1
    20   10   11 1
    21   11   18 1
    22   11   12 2
    23   12   13 1
    24   13   14 2
    25   13   15 am
    26   15   16 1
    27   15   17 1
    28   17   18 2
    29   17   19 1
    30   19   38 1
    31   19   39 1
    32   19   53 1
    33   20   21 1
    34   20   22 1
    35   20   23 1
    36   20   53 1
    37   22   40 1
    38   22   41 1
    39   22   42 1
    40   23   28 ar
    41   23   24 ar
    42   24   25 ar
    43   24   43 1
    44   25   26 ar
    45   25   44 1
    46   26   27 ar
    47   26   45 1
    48   27   28 ar
    49   27   46 1
    50   28   29 1
    51   29   47 1
    52   29   48 1
    53   29   49 1
    54   30   50 1
    55   30   51 1
    56   30   52 1
    57   53   54 1
    58   53   55 1
@<TRIPOS>MOLECULE
ZINC28804092
   62    66     0     0     0
SMALL
USER_CHARGES
(2S)-1-(3,4-dihydro-1H-isoquinolin-2-yl)-2-[[(2R)-2-(1H-indol-3-yl)-2-phenyl-ethyl]amino]propan-1-one
@<TRIPOS>ATOM
      1 C1         -1.3268    1.7423   -4.1106 C.3       1 <0>        -0.1939
      2 C2         -0.9418    2.9350   -3.2331 C.3       1 <0>         0.0137
      3 H1         -1.8352    3.4846   -2.9018 H         1 <0>         0.1586
      4 C3         -0.1703    2.4480   -2.0337 C.2       1 <0>         0.5100
      5 O1          0.9627    2.8363   -1.8429 O.2       1 <0>        -0.5251
      6 N1         -0.7393    1.5808   -1.1731 N.am      1 <0>        -0.5853
      7 C4         -0.0127    1.0858    0.0080 C.3       1 <0>         0.1080
      8 C5         -0.7431    1.5862    1.2533 C.3       1 <0>        -0.0997
      9 C6         -2.2259    1.3412    1.1380 C.ar      1 <0>        -0.0704
     10 C7         -2.9718    1.3446    2.3107 C.ar      1 <0>        -0.1162
     11 C8         -4.3350    1.1387    2.2758 C.ar      1 <0>        -0.1056
     12 C9         -4.9676    0.9269    1.0648 C.ar      1 <0>        -0.1147
     13 C10        -4.2292    0.9191   -0.1005 C.ar      1 <0>        -0.1109
     14 C11        -2.8562    1.1227   -0.0662 C.ar      1 <0>        -0.1151
     15 C12        -2.1076    1.0924   -1.3751 C.3       1 <0>         0.1374
     16 N2         -0.1079    3.8639   -4.0076 N.4       1 <0>        -0.5293
     17 C13        -0.9381    4.7886   -4.7909 C.3       1 <0>         0.0030
     18 C14        -0.0363    5.7381   -5.5822 C.3       1 <0>         0.0231
     19 H2          0.6714    5.1658   -6.2000 H         1 <0>         0.1073
     20 C15         0.7376    6.6091   -4.6264 C.ar      1 <0>        -0.1198
     21 C16         0.0656    7.4442   -3.7536 C.ar      1 <0>        -0.1179
     22 C17         0.7754    8.2399   -2.8738 C.ar      1 <0>        -0.1117
     23 C18         2.1574    8.2076   -2.8736 C.ar      1 <0>        -0.1045
     24 C19         2.8295    7.3760   -3.7497 C.ar      1 <0>        -0.1082
     25 C20         2.1196    6.5771   -4.6265 C.ar      1 <0>        -0.1106
     26 C21        -0.8829    6.6047   -6.4785 C.2       1 <0>        -0.1902
     27 C22        -1.8509    7.4496   -6.0898 C.2       1 <0>         0.0688
     28 N3         -2.3974    8.0671   -7.1817 N.pl3     1 <0>        -0.5991
     29 H3         -3.2048    8.8026   -7.0509 H         1 <0>         0.4495
     30 C23        -1.7854    7.6160   -8.3297 C.ar      1 <0>         0.1082
     31 C24        -0.8098    6.6801   -7.9396 C.ar      1 <0>        -0.0971
     32 C25        -0.0234    6.0502   -8.9056 C.ar      1 <0>        -0.0808
     33 C26        -0.2055    6.3462  -10.2273 C.ar      1 <0>        -0.1349
     34 C27        -1.1667    7.2682  -10.6173 C.ar      1 <0>        -0.0936
     35 C28        -1.9539    7.9017   -9.6804 C.ar      1 <0>        -0.1249
     36 H4         -1.8899    2.0979   -4.9861 H         1 <0>         0.0992
     37 H5         -1.9513    1.0469   -3.5306 H         1 <0>         0.1156
     38 H6         -0.4160    1.2247   -4.4460 H         1 <0>         0.0939
     39 H7          0.0049   -0.0140   -0.0067 H         1 <0>         0.0901
     40 H8          1.0182    1.4692   -0.0084 H         1 <0>         0.1082
     41 H9         -0.3636    1.0556    2.1390 H         1 <0>         0.0987
     42 H10        -0.5700    2.6661    1.3708 H         1 <0>         0.0848
     43 H11        -2.4795    1.5095    3.2577 H         1 <0>         0.1269
     44 H12        -4.9069    1.1433    3.1920 H         1 <0>         0.1290
     45 H13        -6.0355    0.7687    1.0312 H         1 <0>         0.1294
     46 H14        -4.7228    0.7530   -1.0466 H         1 <0>         0.1257
     47 H15        -2.6223    1.7349   -2.1046 H         1 <0>         0.0978
     48 H16        -2.0763    0.0600   -1.7536 H         1 <0>         0.0988
     49 H17         0.5220    4.4498   -3.3221 H         1 <0>         0.4573
     50 H18        -1.5680    4.2156   -5.4873 H         1 <0>         0.1382
     51 H19        -1.5782    5.3713   -4.1122 H         1 <0>         0.1274
     52 H20        -1.0140    7.4725   -3.7566 H         1 <0>         0.1206
     53 H21         0.2504    8.8894   -2.1891 H         1 <0>         0.1277
     54 H22         2.7120    8.8318   -2.1886 H         1 <0>         0.1290
     55 H23         3.9092    7.3507   -3.7495 H         1 <0>         0.1301
     56 H24         2.6447    5.9276   -5.3112 H         1 <0>         0.1270
     57 H25        -2.1518    7.6190   -5.0665 H         1 <0>         0.1659
     58 H26         0.7266    5.3316   -8.6096 H         1 <0>         0.1189
     59 H27         0.4033    5.8585  -10.9743 H         1 <0>         0.1263
     60 H28        -1.2993    7.4912  -11.6657 H         1 <0>         0.1301
     61 H29        -2.6989    8.6180   -9.9939 H         1 <0>         0.1239
     62 H30         0.5323    3.2941   -4.6972 H         1 <0>         0.4514
@<TRIPOS>BOND
     1    1    2 1
     2    1   36 1
     3    1   37 1
     4    1   38 1
     5    2    3 1
     6    2    4 1
     7    2   16 1
     8    4    5 2
     9    4    6 am
    10    6   15 1
    11    6    7 1
    12    7    8 1
    13    7   39 1
    14    7   40 1
    15    8    9 1
    16    8   41 1
    17    8   42 1
    18    9   14 ar
    19    9   10 ar
    20   10   11 ar
    21   10   43 1
    22   11   12 ar
    23   11   44 1
    24   12   13 ar
    25   12   45 1
    26   13   14 ar
    27   13   46 1
    28   14   15 1
    29   15   47 1
    30   15   48 1
    31   16   17 1
    32   16   49 1
    33   16   62 1
    34   17   18 1
    35   17   50 1
    36   17   51 1
    37   18   19 1
    38   18   20 1
    39   18   26 1
    40   20   25 ar
    41   20   21 ar
    42   21   22 ar
    43   21   52 1
    44   22   23 ar
    45   22   53 1
    46   23   24 ar
    47   23   54 1
    48   24   25 ar
    49   24   55 1
    50   25   56 1
    51   26   31 1
    52   26   27 2
    53   27   28 1
    54   27   57 1
    55   28   29 1
    56   28   30 1
    57   30   35 ar
    58   30   31 ar
    59   31   32 ar
    60   32   33 ar
    61   32   58 1
    62   33   34 ar
    63   33   59 1
    64   34   35 ar
    65   34   60 1
    66   35   61 1
@<TRIPOS>MOLECULE
ZINC43253613
   36    37     0     0     0
SMALL
USER_CHARGES

@<TRIPOS>ATOM
      1 C1         -0.1668    1.3408   -0.3081 C.3       1 <0>        -0.1854
      2 C2          0.0966   -0.1655   -0.2566 C.3       1 <0>         0.0303
      3 H1          0.7760   -0.4433   -1.0624 H         1 <0>         0.1530
      4 C3          0.7273   -0.5271    1.0896 C.3       1 <0>         0.1570
      5 H2          0.9878   -1.5855    1.0962 H         1 <0>         0.0895
      6 C4         -0.2554   -0.2449    2.1968 C.2       1 <0>        -0.2225
      7 C5         -1.0385   -1.1114    2.8839 C.2       1 <0>        -0.1214
      8 C6         -1.8747   -0.6223    3.8705 C.2       1 <0>        -0.1578
      9 C7         -1.8859    0.7109    4.1209 C.2       1 <0>        -0.1064
     10 S1         -0.6838    1.3168    2.9482 S.3       1 <0>         0.1673
     11 Cl1        -2.8213    1.5970    5.2843 Cl        1 <0>         0.0418
     12 N1          1.9396    0.2768    1.2942 N.3       1 <0>        -0.5202
     13 C8          2.8926    0.0818    0.1934 C.3       1 <0>         0.0021
     14 C9          2.5617   -0.0288    2.5894 C.3       1 <0>         0.1124
     15 C10         3.6487    0.9754    2.8741 C.2       1 <0>        -0.1303
     16 C11         4.9457    0.7427    2.4558 C.2       1 <0>        -0.1129
     17 C12         5.8999    1.6672    2.7285 C.2       1 <0>        -0.1745
     18 S2          4.9670    2.9143    3.6013 S.3       1 <0>         0.1221
     19 C13         3.3681    2.1225    3.5389 C.2       1 <0>        -0.1363
     20 Br1         7.7408    1.6416    2.2969 Br        1 <0>         0.0485
     21 N2         -1.1716   -0.8900   -0.4136 N.4       1 <0>        -0.6349
     22 H3          0.7559    1.8787   -0.0905 H         1 <0>         0.1223
     23 H4         -0.5208    1.6139   -1.3022 H         1 <0>         0.0848
     24 H5         -0.9232    1.6029    0.4317 H         1 <0>         0.0826
     25 H6         -1.0101   -2.1684    2.6639 H         1 <0>         0.1451
     26 H7         -2.5094   -1.2912    4.4328 H         1 <0>         0.1511
     27 H8          2.4415    0.4154   -0.7411 H         1 <0>         0.0754
     28 H9          3.7957    0.6603    0.3878 H         1 <0>         0.0927
     29 H10         3.1477   -0.9752    0.1167 H         1 <0>         0.0406
     30 H11         1.8076    0.0194    3.3750 H         1 <0>         0.0923
     31 H12         2.9911   -1.0302    2.5590 H         1 <0>         0.0553
     32 H13         5.1954   -0.1615    1.9205 H         1 <0>         0.1384
     33 H14         2.4227    2.4677    3.9305 H         1 <0>         0.1906
     34 H15        -0.9979   -1.8834   -0.3796 H         1 <0>         0.4347
     35 H16        -1.8005   -0.6328    0.3323 H         1 <0>         0.4318
     36 H17        -1.5875   -0.6515   -1.3014 H         1 <0>         0.4408
@<TRIPOS>BOND
     1    1    2 1
     2    1   22 1
     3    1   23 1
     4    1   24 1
     5    2    3 1
     6    2    4 1
     7    2   21 1
     8    4    5 1
     9    4    6 1
    10    4   12 1
    11    6   10 1
    12    6    7 2
    13    7    8 1
    14    7   25 1
    15    8    9 2
    16    8   26 1
    17    9   10 1
    18    9   11 1
    19   12   13 1
    20   12   14 1
    21   13   27 1
    22   13   28 1
    23   13   29 1
    24   14   15 1
    25   14   30 1
    26   14   31 1
    27   15   19 2
    28   15   16 1
    29   16   17 2
    30   16   32 1
    31   17   18 1
    32   17   20 1
    33   18   19 1
    34   19   33 1
    35   21   34 1
    36   21   35 1
    37   21   36 1
@<TRIPOS>MOLECULE
ZINC62013277
   39    40     0     0     0
SMALL
USER_CHARGES

@<TRIPOS>ATOM
      1 C1         -0.7216    1.5855    0.3643 C.3       1 <0>        -0.1657
      2 C2         -0.1804    0.1705    0.1504 C.3       1 <0>         0.1188
      3 H1         -1.0112   -0.5339    0.1097 H         1 <0>         0.0284
      4 C3          0.5877    0.1169   -1.1450 C.ar      1 <0>        -0.0947
      5 C4          1.9687    0.1764   -1.1328 C.ar      1 <0>        -0.0843
      6 C5          2.6733    0.1273   -2.3209 C.ar      1 <0>        -0.1105
      7 C6          1.9974    0.0186   -3.5222 C.ar      1 <0>        -0.0920
      8 C7          0.6168   -0.0410   -3.5356 C.ar      1 <0>        -0.1048
      9 C8         -0.0889    0.0024   -2.3462 C.ar      1 <0>        -0.0318
     10 Cl1        -1.8229   -0.0790   -2.3618 Cl        1 <0>        -0.0717
     11 N1          0.7101   -0.1864    1.2629 N.3       1 <0>        -0.5267
     12 C9          1.1966   -1.5658    1.1260 C.3       1 <0>        -0.0013
     13 C10         0.0418    0.0102    2.5562 C.3       1 <0>         0.1471
     14 H2         -0.5745    0.9083    2.5139 H         1 <0>         0.1487
     15 C11        -0.8417   -1.2006    2.8630 C.3       1 <0>        -0.0501
     16 N2         -1.7597   -1.4341    1.7401 N.4       1 <0>        -0.6453
     17 C12         1.0785    0.1630    3.6392 C.2       1 <0>        -0.0006
     18 C13         1.0153    1.0215    4.6727 C.2       1 <0>        -0.1408
     19 C14         2.1891    0.8292    5.4379 C.2       1 <0>        -0.1437
     20 C15         2.9000   -0.1366    4.8251 C.2       1 <0>         0.0260
     21 O1          2.2194   -0.5395    3.7390 O.3       1 <0>        -0.1382
     22 Br1         4.5692   -0.8149    5.3992 Br        1 <0>         0.0956
     23 Br2         2.6686    1.7516    7.0175 Br        1 <0>         0.0299
     24 H3          0.1077    2.2669    0.5545 H         1 <0>         0.0920
     25 H4         -1.2592    1.9076   -0.5275 H         1 <0>         0.0874
     26 H5         -1.3989    1.5903    1.2183 H         1 <0>         0.0612
     27 H6          2.4972    0.2617   -0.1948 H         1 <0>         0.1471
     28 H7          3.7523    0.1742   -2.3109 H         1 <0>         0.1362
     29 H8          2.5485   -0.0194   -4.4502 H         1 <0>         0.1392
     30 H9          0.0890   -0.1256   -4.4740 H         1 <0>         0.1400
     31 H10         1.8421   -1.6382    0.2507 H         1 <0>         0.1052
     32 H11         1.7602   -1.8424    2.0170 H         1 <0>         0.0984
     33 H12         0.3483   -2.2402    1.0087 H         1 <0>         0.0182
     34 H13        -0.2148   -2.0803    3.0087 H         1 <0>         0.1466
     35 H14        -1.4170   -1.0104    3.7691 H         1 <0>         0.1557
     36 H15        -2.1728   -0.5586    1.4558 H         1 <0>         0.4353
     37 H16        -1.2497   -1.8324    0.9660 H         1 <0>         0.4319
     38 H17         0.2208    1.7236    4.8784 H         1 <0>         0.1726
     39 H18        -2.4871   -2.0717    2.0273 H         1 <0>         0.4407
@<TRIPOS>BOND
     1    1    2 1
     2    1   24 1
     3    1   25 1
     4    1   26 1
     5    2    3 1
     6    2    4 1
     7    2   11 1
     8    4    9 ar
     9    4    5 ar
    10    5    6 ar
    11    5   27 1
    12    6    7 ar
    13    6   28 1
    14    7    8 ar
    15    7   29 1
    16    8    9 ar
    17    8   30 1
    18    9   10 1
    19   11   12 1
    20   11   13 1
    21   12   31 1
    22   12   32 1
    23   12   33 1
    24   13   14 1
    25   13   15 1
    26   13   17 1
    27   15   16 1
    28   15   34 1
    29   15   35 1
    30   16   36 1
    31   16   37 1
    32   16   39 1
    33   17   21 1
    34   17   18 2
    35   18   19 1
    36   18   38 1
    37   19   20 2
    38   19   23 1
    39   20   21 1
    40   20   22 1
@<TRIPOS>MOLECULE
ZINC04729492
   59    62     0     0     0
SMALL
USER_CHARGES
2-ethoxy-6-[6-(4-ethylphenyl)-2-(4-fluorophenyl)-2,3,4,5-tetrahydropyrimidin-4-yl]-phenol
@<TRIPOS>ATOM
      1 C1         -5.9745    4.8603   -5.9394 C.3       1 <0>        -0.1489
      2 C2         -4.6791    5.6409   -6.1710 C.3       1 <0>        -0.0975
      3 C3         -3.5080    4.8259   -5.6861 C.ar      1 <0>        -0.0355
      4 C4         -2.8680    3.9570   -6.5520 C.ar      1 <0>        -0.1276
      5 C5         -1.7953    3.2079   -6.1147 C.ar      1 <0>        -0.0524
      6 C6         -1.3557    3.3282   -4.7949 C.ar      1 <0>        -0.1085
      7 C7         -2.0095    4.2030   -3.9250 C.ar      1 <0>        -0.0758
      8 C8         -3.0773    4.9503   -4.3771 C.ar      1 <0>        -0.1237
      9 C9         -0.2088    2.5294   -4.3197 C.2       1 <0>         0.2778
     10 N1          0.3629    1.7340   -5.1430 N.2       1 <0>        -0.5259
     11 C10         1.4962    0.8822   -4.8047 C.3       1 <0>         0.2627
     12 H1          2.2172    0.9034   -5.6219 H         1 <0>         0.1749
     13 C11         1.1471    1.5226   -2.5057 C.3       1 <0>         0.0929
     14 H2          0.5578    0.6116   -2.4013 H         1 <0>         0.1526
     15 C12         0.2327    2.6894   -2.8915 C.3       1 <0>        -0.1348
     16 C13         1.8424    1.8302   -1.2045 C.ar      1 <0>        -0.1278
     17 C14         3.0980    2.4097   -1.2116 C.ar      1 <0>        -0.1573
     18 C15         3.7384    2.6931   -0.0201 C.ar      1 <0>        -0.0623
     19 C16         3.1263    2.3988    1.1844 C.ar      1 <0>        -0.1754
     20 C17         1.8660    1.8239    1.1987 C.ar      1 <0>         0.1296
     21 C18         1.2237    1.5328   -0.0014 C.ar      1 <0>         0.1070
     22 O1         -0.0110    0.9628    0.0073 O.3       1 <0>        -0.4782
     23 O2          1.2603    1.5390    2.3825 O.3       1 <0>        -0.2981
     24 C19         1.9787    1.8652    3.5739 C.3       1 <0>         0.0499
     25 C20         1.1445    1.4746    4.7955 C.3       1 <0>        -0.1556
     26 C21         1.0128   -0.5313   -4.6058 C.ar      1 <0>        -0.1622
     27 C22         1.6903   -1.3788   -3.7490 C.ar      1 <0>        -0.0956
     28 C23         1.2447   -2.6734   -3.5615 C.ar      1 <0>        -0.1417
     29 C24         0.1262   -3.1253   -4.2411 C.ar      1 <0>         0.1352
     30 C25        -0.5482   -2.2773   -5.1032 C.ar      1 <0>        -0.1437
     31 C26        -0.1043   -0.9812   -5.2845 C.ar      1 <0>        -0.0361
     32 F1         -0.3066   -4.3927   -4.0635 F         1 <0>        -0.1219
     33 H3         -6.0900    4.6557   -4.8750 H         1 <0>         0.0575
     34 H4         -6.8216    5.4497   -6.2902 H         1 <0>         0.0654
     35 H5         -5.9346    3.9192   -6.4881 H         1 <0>         0.0575
     36 H6         -4.7190    6.5819   -5.6224 H         1 <0>         0.0792
     37 H7         -4.5636    5.8455   -7.2354 H         1 <0>         0.0793
     38 H8         -3.2093    3.8647   -7.5725 H         1 <0>         0.1328
     39 H9         -1.2965    2.5303   -6.7918 H         1 <0>         0.1380
     40 H10        -1.6774    4.2975   -2.9017 H         1 <0>         0.1296
     41 H11        -3.5811    5.6307   -3.7065 H         1 <0>         0.1336
     42 H12        -0.5689    2.6964   -2.2936 H         1 <0>         0.1276
     43 H13         0.7758    3.6281   -2.7821 H         1 <0>         0.1269
     44 H14         3.5793    2.6411   -2.1504 H         1 <0>         0.1234
     45 H15         4.7192    3.1451   -0.0298 H         1 <0>         0.1434
     46 H16         3.6289    2.6213    2.1141 H         1 <0>         0.1459
     47 H17         0.0021   -0.0041    0.0020 H         1 <0>         0.3949
     48 H18         2.9228    1.3207    3.5895 H         1 <0>         0.0682
     49 H19         2.1768    2.9368    3.5968 H         1 <0>         0.0691
     50 H20         0.2003    2.0191    4.7800 H         1 <0>         0.0706
     51 H21         0.9463    0.4031    4.7727 H         1 <0>         0.0694
     52 H22         1.6925    1.7235    5.7043 H         1 <0>         0.0864
     53 H23         2.5657   -1.0277   -3.2230 H         1 <0>         0.1267
     54 H24         1.7717   -3.3341   -2.8891 H         1 <0>         0.1503
     55 H25        -1.4206   -2.6288   -5.6341 H         1 <0>         0.1517
     56 H26        -0.6302   -0.3196   -5.9569 H         1 <0>         0.1528
     57 N2          2.1512    1.3495   -3.5736 N.4       1 <0>        -0.5456
     58 H27         2.6145    2.2478   -3.7543 H         1 <0>         0.4349
     59 H28         2.8494    0.6580   -3.2758 H         1 <0>         0.4343
@<TRIPOS>BOND
     1    1    2 1
     2    1   33 1
     3    1   34 1
     4    1   35 1
     5    2    3 1
     6    2   36 1
     7    2   37 1
     8    3    8 ar
     9    3    4 ar
    10    4    5 ar
    11    4   38 1
    12    5    6 ar
    13    5   39 1
    14    6    7 ar
    15    6    9 1
    16    7    8 ar
    17    7   40 1
    18    8   41 1
    19    9   15 1
    20    9   10 2
    21   10   11 1
    22   11   12 1
    23   11   26 1
    24   11   57 1
    25   13   14 1
    26   13   15 1
    27   13   16 1
    28   13   57 1
    29   15   42 1
    30   15   43 1
    31   16   21 ar
    32   16   17 ar
    33   17   18 ar
    34   17   44 1
    35   18   19 ar
    36   18   45 1
    37   19   20 ar
    38   19   46 1
    39   20   21 ar
    40   20   23 1
    41   21   22 1
    42   22   47 1
    43   23   24 1
    44   24   25 1
    45   24   48 1
    46   24   49 1
    47   25   50 1
    48   25   51 1
    49   25   52 1
    50   26   31 ar
    51   26   27 ar
    52   27   28 ar
    53   27   53 1
    54   28   29 ar
    55   28   54 1
    56   29   30 ar
    57   29   32 1
    58   30   31 ar
    59   30   55 1
    60   31   56 1
    61   57   58 1
    62   57   59 1
@<TRIPOS>MOLECULE
ZINC12499400
   54    57     0     0     0
SMALL
USER_CHARGES
1-(o-tolyl)-3-[(1S,5R)-9-(2-thienylmethyl)-9-azabicyclo[3.3.1]nonan-7-yl]thiourea
@<TRIPOS>ATOM
      1 C1         -5.1271   -7.5698   -0.7767 C.3       1 <0>        -0.1189
      2 C2         -4.1634   -7.6809    0.3765 C.ar      1 <0>        -0.0835
      3 C3         -3.8376   -8.9219    0.8882 C.ar      1 <0>        -0.1141
      4 C4         -2.9538   -9.0246    1.9466 C.ar      1 <0>        -0.1008
      5 C5         -2.3933   -7.8860    2.4963 C.ar      1 <0>        -0.1157
      6 C6         -2.7108   -6.6427    1.9860 C.ar      1 <0>        -0.0659
      7 C7         -3.6023   -6.5358    0.9262 C.ar      1 <0>         0.1112
      8 N1         -3.9298   -5.2775    0.4100 N.pl3     1 <0>        -0.6186
      9 C8         -4.2028   -4.2563    1.2461 C.2       1 <0>         0.5535
     10 S1         -4.2865   -4.5309    2.9339 S.2       1 <0>        -0.5967
     11 N2         -4.4099   -3.0190    0.7536 N.pl3     1 <0>        -0.6947
     12 C9         -4.7089   -1.9003    1.6695 C.3       1 <0>         0.1442
     13 C10        -3.3937   -1.3663    2.2212 C.3       1 <0>        -0.1480
     14 C11        -3.5437   -0.0059    2.8842 C.3       1 <0>         0.0420
     15 H1         -2.5375    0.3807    3.1107 H         1 <0>         0.1343
     16 C12        -4.3136   -0.1099    4.1972 C.3       1 <0>        -0.1384
     17 C13        -5.7819   -0.4444    3.9778 C.3       1 <0>        -0.1443
     18 C14        -6.4185    0.3959    2.8803 C.3       1 <0>        -0.1423
     19 C15        -5.5436    0.4884    1.6359 C.3       1 <0>         0.0486
     20 H2         -5.9886    1.2371    0.9615 H         1 <0>         0.1378
     21 C16        -5.4828   -0.8400    0.8957 C.3       1 <0>        -0.1457
     22 C17        -3.3918    1.3133    0.8404 C.3       1 <0>         0.1020
     23 C18        -2.1346    2.0020    1.3053 C.2       1 <0>        -0.2675
     24 C19        -0.9322    1.4618    1.6209 C.2       1 <0>        -0.0837
     25 C20         0.0933    2.2972    2.0226 C.2       1 <0>        -0.1793
     26 C21        -0.1355    3.6313    2.0943 C.2       1 <0>        -0.1170
     27 S2         -1.8430    3.7410    1.5848 S.3       1 <0>         0.0919
     28 H3         -4.5757   -7.6096   -1.7161 H         1 <0>         0.0736
     29 H4         -5.8377   -8.3955   -0.7373 H         1 <0>         0.0778
     30 H5         -5.6650   -6.6241   -0.7109 H         1 <0>         0.0579
     31 H6         -4.2733   -9.8129    0.4609 H         1 <0>         0.1303
     32 H7         -2.7004   -9.9960    2.3446 H         1 <0>         0.1289
     33 H8         -1.7033   -7.9695    3.3230 H         1 <0>         0.1298
     34 H9         -2.2693   -5.7543    2.4128 H         1 <0>         0.1354
     35 H10        -3.9605   -5.1400   -0.5497 H         1 <0>         0.4068
     36 H11        -4.3625   -2.8634   -0.2027 H         1 <0>         0.3989
     37 H12        -5.3229   -2.3034    2.4753 H         1 <0>         0.1402
     38 H13        -3.0059   -2.0798    2.9627 H         1 <0>         0.1314
     39 H14        -2.6557   -1.3076    1.4149 H         1 <0>         0.0842
     40 H15        -3.8536   -0.8847    4.8203 H         1 <0>         0.1152
     41 H16        -4.2350    0.8427    4.7332 H         1 <0>         0.0863
     42 H17        -5.9133   -1.5054    3.7808 H         1 <0>         0.0935
     43 H18        -6.3228   -0.2391    4.9212 H         1 <0>         0.0915
     44 H19        -6.6041    1.4072    3.2615 H         1 <0>         0.0907
     45 H20        -7.3866   -0.0388    2.6056 H         1 <0>         0.1128
     46 H21        -6.5084   -1.2006    0.7331 H         1 <0>         0.1193
     47 H22        -5.0285   -0.6995   -0.0892 H         1 <0>         0.0919
     48 H23        -3.9576    1.9861    0.1960 H         1 <0>         0.1390
     49 H24        -3.1288    0.4134    0.2845 H         1 <0>         0.1430
     50 H25        -0.7763    0.3952    1.5553 H         1 <0>         0.1402
     51 H26         1.0622    1.8928    2.2758 H         1 <0>         0.1494
     52 H27         0.5399    4.4225    2.3847 H         1 <0>         0.1999
     53 N3         -4.2162    0.9926    2.0338 N.4       1 <0>        -0.3880
     54 H28        -4.3435    1.8535    2.5788 H         1 <0>         0.4299
@<TRIPOS>BOND
     1    1    2 1
     2    1   28 1
     3    1   29 1
     4    1   30 1
     5    2    7 ar
     6    2    3 ar
     7    3    4 ar
     8    3   31 1
     9    4    5 ar
    10    4   32 1
    11    5    6 ar
    12    5   33 1
    13    6    7 ar
    14    6   34 1
    15    7    8 1
    16    8    9 1
    17    8   35 1
    18    9   10 2
    19    9   11 1
    20   11   12 1
    21   11   36 1
    22   12   21 1
    23   12   13 1
    24   12   37 1
    25   13   14 1
    26   13   38 1
    27   13   39 1
    28   14   15 1
    29   14   16 1
    30   14   53 1
    31   16   17 1
    32   16   40 1
    33   16   41 1
    34   17   18 1
    35   17   42 1
    36   17   43 1
    37   18   19 1
    38   18   44 1
    39   18   45 1
    40   19   20 1
    41   19   21 1
    42   19   53 1
    43   21   46 1
    44   21   47 1
    45   22   23 1
    46   22   48 1
    47   22   49 1
    48   22   53 1
    49   23   27 1
    50   23   24 2
    51   24   25 1
    52   24   50 1
    53   25   26 2
    54   25   51 1
    55   26   27 1
    56   26   52 1
    57   53   54 1
@<TRIPOS>MOLECULE
ZINC28296800
   55    58     0     0     0
SMALL
USER_CHARGES
(2R)-1-(8-chloro-1,2,3,4-tetrahydrocarbazol-9-yl)-3-[[(1R)-1-phenylethyl]amino]propan-2-ol
@<TRIPOS>ATOM
      1 C1         -1.7485   -4.4151    2.6680 C.3       1 <0>        -0.1779
      2 C2         -0.2868   -4.0019    2.8518 C.3       1 <0>         0.0896
      3 H1          0.3401   -4.3998    2.0402 H         1 <0>         0.1393
      4 C3          0.2158   -4.5101    4.1784 C.ar      1 <0>        -0.1430
      5 C4         -0.0829   -3.8228    5.3400 C.ar      1 <0>        -0.1214
      6 C5          0.3745   -4.2914    6.5574 C.ar      1 <0>        -0.1052
      7 C6          1.1387   -5.4420    6.6122 C.ar      1 <0>        -0.0921
      8 C7          1.4415   -6.1266    5.4501 C.ar      1 <0>        -0.1055
      9 C8          0.9805   -5.6605    4.2332 C.ar      1 <0>        -0.0896
     10 N1         -0.1841   -2.5369    2.8178 N.4       1 <0>        -0.5365
     11 C9         -0.0829   -2.0482    1.4362 C.3       1 <0>         0.0064
     12 C10         0.0221   -0.5218    1.4416 C.3       1 <0>         0.0776
     13 H2         -0.7824   -0.0688    2.0396 H         1 <0>         0.0797
     14 C11         0.0021   -0.0041    0.0020 C.3       1 <0>         0.0705
     15 N2         -0.0178    1.4608    0.0101 N.pl3     1 <0>        -0.4761
     16 C12        -1.1469    2.2298    0.0191 C.2       1 <0>         0.0710
     17 C13        -0.8061    3.5326    0.0291 C.2       1 <0>        -0.1459
     18 C14         0.6515    3.6021    0.0168 C.ar      1 <0>        -0.0839
     19 C15         1.0999    2.2673    0.0037 C.ar      1 <0>         0.0948
     20 C16         2.4669    2.0075   -0.0124 C.ar      1 <0>        -0.0556
     21 C17         3.3637    3.0548   -0.0142 C.ar      1 <0>        -0.0802
     22 C18         2.9165    4.3685    0.0004 C.ar      1 <0>        -0.1295
     23 C19         1.5789    4.6464    0.0162 C.ar      1 <0>        -0.0589
     24 Cl1         3.0414    0.3694   -0.0307 Cl        1 <0>        -0.0653
     25 C20        -1.7877    4.6761    0.0420 C.3       1 <0>        -0.0524
     26 C21        -3.1660    4.1369   -0.3602 C.3       1 <0>        -0.1232
     27 C22        -3.4852    2.8920    0.4725 C.3       1 <0>        -0.1154
     28 C23        -2.5761    1.7377    0.0367 C.3       1 <0>        -0.0533
     29 O1          1.2437   -0.1306    2.0715 O.3       1 <0>        -0.5938
     30 H3         -2.1154   -4.0441    1.6996 H         1 <0>         0.0822
     31 H4         -2.3555   -3.9861    3.4789 H         1 <0>         0.0842
     32 H5         -1.8254   -5.5121    2.6934 H         1 <0>         0.1075
     33 H6         -0.6766   -2.9217    5.2968 H         1 <0>         0.1197
     34 H7          0.1376   -3.7567    7.4654 H         1 <0>         0.1349
     35 H8          1.4989   -5.8062    7.5630 H         1 <0>         0.1357
     36 H9          2.0386   -7.0256    5.4930 H         1 <0>         0.1367
     37 H10         1.2173   -6.1952    3.3252 H         1 <0>         0.1323
     38 H11        -1.0778   -2.0958    3.2834 H         1 <0>         0.4429
     39 H12         0.8122   -2.4757    0.9607 H         1 <0>         0.1387
     40 H13        -0.9777   -2.3522    0.8732 H         1 <0>         0.1425
     41 H14         0.9004   -0.3557   -0.5266 H         1 <0>         0.1158
     42 H15        -0.8956   -0.3802   -0.5105 H         1 <0>         0.1022
     43 H16         4.4242    2.8509   -0.0267 H         1 <0>         0.1394
     44 H17         3.6316    5.1777   -0.0004 H         1 <0>         0.1374
     45 H18         1.2394    5.6716    0.0281 H         1 <0>         0.1324
     46 H19        -1.8334    5.1087    1.0523 H         1 <0>         0.0759
     47 H20        -1.4624    5.4467   -0.6724 H         1 <0>         0.0775
     48 H21        -3.9290    4.9079   -0.1772 H         1 <0>         0.0753
     49 H22        -3.1594    3.8738   -1.4282 H         1 <0>         0.0678
     50 H23        -3.3157    3.1098    1.5373 H         1 <0>         0.0693
     51 H24        -4.5368    2.6080    0.3192 H         1 <0>         0.0767
     52 H25        -2.8592    1.3977   -0.9704 H         1 <0>         0.0842
     53 H26        -2.6672    0.9012    0.7452 H         1 <0>         0.0690
     54 H27         1.4953    0.9358    2.1690 H         1 <0>         0.4348
     55 H28         0.7121   -2.2192    3.3708 H         1 <0>         0.4607
@<TRIPOS>BOND
     1    1    2 1
     2    1   30 1
     3    1   31 1
     4    1   32 1
     5    2    3 1
     6    2    4 1
     7    2   10 1
     8    4    9 ar
     9    4    5 ar
    10    5    6 ar
    11    5   33 1
    12    6    7 ar
    13    6   34 1
    14    7    8 ar
    15    7   35 1
    16    8    9 ar
    17    8   36 1
    18    9   37 1
    19   10   11 1
    20   10   38 1
    21   10   55 1
    22   11   12 1
    23   11   39 1
    24   11   40 1
    25   12   13 1
    26   12   14 1
    27   12   29 1
    28   14   15 1
    29   14   41 1
    30   14   42 1
    31   15   19 1
    32   15   16 1
    33   16   28 1
    34   16   17 2
    35   17   18 1
    36   17   25 1
    37   18   23 ar
    38   18   19 ar
    39   19   20 ar
    40   20   21 ar
    41   20   24 1
    42   21   22 ar
    43   21   43 1
    44   22   23 ar
    45   22   44 1
    46   23   45 1
    47   25   26 1
    48   25   46 1
    49   25   47 1
    50   26   27 1
    51   26   48 1
    52   26   49 1
    53   27   28 1
    54   27   50 1
    55   27   51 1
    56   28   52 1
    57   28   53 1
    58   29   54 1
@<TRIPOS>MOLECULE
ZINC40720971
   45    46     0     0     0
SMALL
USER_CHARGES

@<TRIPOS>ATOM
      1 C1         -0.0167    1.3782    0.0096 C.ar      1 <0>        -0.0787
      2 C2          1.1706    2.0858    0.0021 C.ar      1 <0>        -0.1105
      3 C3          2.3780    1.4104   -0.0130 C.ar      1 <0>        -0.0185
      4 C4          2.3961    0.0270   -0.0206 C.ar      1 <0>        -0.1129
      5 C5          1.2082   -0.6795   -0.0130 C.ar      1 <0>        -0.0846
      6 C6          0.0021   -0.0041    0.0020 C.ar      1 <0>        -0.1083
      7 C7         -1.2928   -0.7750    0.0107 C.3       1 <0>         0.1019
      8 O1         -1.7154   -1.0114   -1.3338 O.3       1 <0>        -0.3164
      9 C8         -2.8749   -1.6997   -1.5041 C.ar      1 <0>         0.1692
     10 C9         -3.5940   -2.1335   -0.3996 C.ar      1 <0>        -0.1976
     11 C10        -4.7721   -2.8328   -0.5748 C.ar      1 <0>        -0.0142
     12 C11        -5.2353   -3.1009   -1.8508 C.ar      1 <0>        -0.1302
     13 C12        -4.5198   -2.6698   -2.9532 C.ar      1 <0>        -0.0231
     14 C13        -3.3440   -1.9645   -2.7822 C.ar      1 <0>        -0.1936
     15 C14        -2.5686   -1.4888   -3.9837 C.3       1 <0>         0.0574
     16 N1         -1.4531   -2.4089   -4.2423 N.4       1 <0>        -0.5089
     17 C15        -0.6972   -1.9451   -5.4134 C.3       1 <0>        -0.0083
     18 C16         0.4646   -2.9035   -5.6828 C.3       1 <0>        -0.1468
     19 C17         1.2519   -2.4205   -6.9025 C.3       1 <0>        -0.1203
     20 C18         2.4137   -3.3788   -7.1719 C.3       1 <0>         0.0743
     21 O2          3.1490   -2.9277   -8.3111 O.3       1 <0>        -0.5733
     22 Br1        -6.8486   -4.0586   -2.0877 Br        1 <0>        -0.0178
     23 Cl1         3.8696    2.2984   -0.0231 Cl        1 <0>        -0.0509
     24 H1         -0.9592    1.9053    0.0259 H         1 <0>         0.1363
     25 H2          1.1558    3.1656    0.0076 H         1 <0>         0.1417
     26 H3          3.3383   -0.5007   -0.0327 H         1 <0>         0.1404
     27 H4          1.2222   -1.7594   -0.0193 H         1 <0>         0.1338
     28 H5         -1.1447   -1.7283    0.5180 H         1 <0>         0.0845
     29 H6         -2.0551   -0.1989    0.5352 H         1 <0>         0.0855
     30 H7         -3.2325   -1.9247    0.5965 H         1 <0>         0.1501
     31 H8         -5.3319   -3.1710    0.2846 H         1 <0>         0.1494
     32 H9         -4.8829   -2.8804   -3.9483 H         1 <0>         0.1503
     33 H10        -3.2259   -1.4613   -4.8528 H         1 <0>         0.1408
     34 H11        -2.1782   -0.4894   -3.7916 H         1 <0>         0.1425
     35 H12        -0.8447   -2.4344   -3.4378 H         1 <0>         0.4285
     36 H13        -1.3545   -1.9176   -6.2825 H         1 <0>         0.1351
     37 H14        -0.3068   -0.9457   -5.2214 H         1 <0>         0.1343
     38 H15         1.1219   -2.9310   -4.8137 H         1 <0>         0.0890
     39 H16         0.0742   -3.9029   -5.8748 H         1 <0>         0.0898
     40 H17         0.5946   -2.3930   -7.7716 H         1 <0>         0.0825
     41 H18         1.6423   -1.4211   -6.7105 H         1 <0>         0.0822
     42 H19         3.0710   -3.4063   -6.3028 H         1 <0>         0.0487
     43 H20         2.0233   -4.3782   -7.3639 H         1 <0>         0.0490
     44 H21         3.9022   -3.4890   -8.5407 H         1 <0>         0.3911
     45 H22        -1.8145   -3.3340   -4.4200 H         1 <0>         0.4265
@<TRIPOS>BOND
     1    1    6 ar
     2    1    2 ar
     3    1   24 1
     4    2    3 ar
     5    2   25 1
     6    3    4 ar
     7    3   23 1
     8    4    5 ar
     9    4   26 1
    10    5    6 ar
    11    5   27 1
    12    6    7 1
    13    7    8 1
    14    7   28 1
    15    7   29 1
    16    8    9 1
    17    9   14 ar
    18    9   10 ar
    19   10   11 ar
    20   10   30 1
    21   11   12 ar
    22   11   31 1
    23   12   13 ar
    24   12   22 1
    25   13   14 ar
    26   13   32 1
    27   14   15 1
    28   15   16 1
    29   15   33 1
    30   15   34 1
    31   16   17 1
    32   16   35 1
    33   16   45 1
    34   17   18 1
    35   17   36 1
    36   17   37 1
    37   18   19 1
    38   18   38 1
    39   18   39 1
    40   19   20 1
    41   19   40 1
    42   19   41 1
    43   20   21 1
    44   20   42 1
    45   20   43 1
    46   21   44 1
@<TRIPOS>MOLECULE
ZINC57050892
   61    65     0     0     0
SMALL
USER_CHARGES

@<TRIPOS>ATOM
      1 C1          1.7920    1.5687    1.1440 C.3       1 <0>        -0.1143
      2 C2          1.5062    0.1002    0.9627 C.ar      1 <0>        -0.1119
      3 C3          1.2985   -0.3898   -0.3162 C.ar      1 <0>        -0.0948
      4 C4          1.0334   -1.7255   -0.5591 C.ar      1 <0>        -0.1297
      5 C5          0.9805   -2.5757    0.5432 C.ar      1 <0>         0.1001
      6 C6          1.1928   -2.0661    1.8591 C.ar      1 <0>        -0.0891
      7 C7          1.4655   -0.7102    2.0689 C.ar      1 <0>        -0.0680
      8 C8          1.0646   -3.1901    2.7465 C.2       1 <0>        -0.1559
      9 C9          0.7766   -4.2567    1.9743 C.2       1 <0>         0.0496
     10 N1          0.7527   -3.9145    0.6511 N.pl3     1 <0>        -0.4660
     11 C10         0.5265   -4.9252   -0.3938 C.3       1 <0>         0.1218
     12 C11        -0.0494   -6.1799    0.2739 C.3       1 <0>         0.0280
     13 N2          0.7514   -6.5789    1.4400 N.3       1 <0>        -0.5262
     14 C12         0.5573   -5.6337    2.5589 C.3       1 <0>         0.1571
     15 H1         -0.4504   -5.7222    2.9649 H         1 <0>         0.0714
     16 C13         1.6023   -5.8626    3.6389 C.3       1 <0>        -0.1007
     17 C14         1.9350   -4.6778    4.5112 C.3       1 <0>        -0.1130
     18 C15         1.1895   -3.3808    4.2325 C.3       1 <0>        -0.0428
     19 C16         0.4347   -7.9532    1.8509 C.3       1 <0>         0.0204
     20 C17         1.1264   -8.9397    0.9079 C.3       1 <0>         0.0883
     21 H2          2.1908   -8.7099    0.8588 H         1 <0>         0.1338
     22 C18         0.9360  -10.3647    1.4313 C.3       1 <0>        -0.0452
     23 N3          1.6991  -11.2999    0.5942 N.4       1 <0>        -0.5039
     24 C19         1.5163  -12.6681    1.0968 C.3       1 <0>         0.0473
     25 C20         2.2992  -13.6276    0.2380 C.ar      1 <0>        -0.1700
     26 C21         1.7095  -14.1989   -0.8741 C.ar      1 <0>        -0.0924
     27 C22         2.4277  -15.0790   -1.6618 C.ar      1 <0>        -0.1143
     28 C23         3.7356  -15.3874   -1.3378 C.ar      1 <0>        -0.0812
     29 C24         4.3256  -14.8154   -0.2261 C.ar      1 <0>        -0.1142
     30 C25         3.6088  -13.9320    0.5592 C.ar      1 <0>        -0.0926
     31 O1          0.5550   -8.8314   -0.3974 O.3       1 <0>        -0.5483
     32 H3          2.8673    1.7389    1.0901 H         1 <0>         0.0679
     33 H4          1.2945    2.1355    0.3571 H         1 <0>         0.0647
     34 H5          1.4210    1.8937    2.1160 H         1 <0>         0.0649
     35 H6          1.3446    0.2936   -1.1512 H         1 <0>         0.1223
     36 H7          0.8738   -2.0939   -1.5617 H         1 <0>         0.1241
     37 H8          1.6332   -0.3170    3.0607 H         1 <0>         0.1289
     38 H9         -0.1807   -4.5421   -1.1294 H         1 <0>         0.0893
     39 H10         1.4705   -5.1681   -0.8815 H         1 <0>         0.0846
     40 H11        -1.0710   -5.9765    0.5951 H         1 <0>         0.0453
     41 H12        -0.0593   -6.9961   -0.4485 H         1 <0>         0.1190
     42 H13         1.2517   -6.6690    4.2831 H         1 <0>         0.0613
     43 H14         2.5209   -6.1952    3.1556 H         1 <0>         0.0734
     44 H15         1.7430   -4.9592    5.5467 H         1 <0>         0.0671
     45 H16         3.0022   -4.4788    4.4140 H         1 <0>         0.0646
     46 H17         1.7412   -2.5444    4.6617 H         1 <0>         0.0768
     47 H18         0.1959   -3.4291    4.6781 H         1 <0>         0.0706
     48 H19         0.7853   -8.1178    2.8697 H         1 <0>         0.0999
     49 H20        -0.6438   -8.1057    1.8087 H         1 <0>         0.0567
     50 H21         1.2916  -10.4244    2.4599 H         1 <0>         0.1444
     51 H22        -0.1216  -10.6261    1.3968 H         1 <0>         0.1362
     52 H23         1.3699  -11.2446   -0.3580 H         1 <0>         0.4316
     53 H24         1.8719  -12.7279    2.1254 H         1 <0>         0.1380
     54 H25         0.4587  -12.9295    1.0623 H         1 <0>         0.1370
     55 H26         0.6877  -13.9579   -1.1273 H         1 <0>         0.1309
     56 H27         1.9668  -15.5259   -2.5303 H         1 <0>         0.1366
     57 H28         4.2965  -16.0756   -1.9528 H         1 <0>         0.1367
     58 H29         5.3473  -15.0567    0.0273 H         1 <0>         0.1369
     59 H30         4.0709  -13.4822    1.4255 H         1 <0>         0.1316
     60 H31        -0.3923   -9.0228   -0.4292 H         1 <0>         0.3866
     61 H32         2.6782  -11.0579    0.6262 H         1 <0>         0.4291
@<TRIPOS>BOND
     1    1    2 1
     2    1   32 1
     3    1   33 1
     4    1   34 1
     5    2    7 ar
     6    2    3 ar
     7    3    4 ar
     8    3   35 1
     9    4    5 ar
    10    4   36 1
    11    5   10 1
    12    5    6 ar
    13    6    7 ar
    14    6    8 1
    15    7   37 1
    16    8   18 1
    17    8    9 2
    18    9   14 1
    19    9   10 1
    20   10   11 1
    21   11   12 1
    22   11   38 1
    23   11   39 1
    24   12   13 1
    25   12   40 1
    26   12   41 1
    27   13   14 1
    28   13   19 1
    29   14   15 1
    30   14   16 1
    31   16   17 1
    32   16   42 1
    33   16   43 1
    34   17   18 1
    35   17   44 1
    36   17   45 1
    37   18   46 1
    38   18   47 1
    39   19   20 1
    40   19   48 1
    41   19   49 1
    42   20   21 1
    43   20   22 1
    44   20   31 1
    45   22   23 1
    46   22   50 1
    47   22   51 1
    48   23   24 1
    49   23   52 1
    50   23   61 1
    51   24   25 1
    52   24   53 1
    53   24   54 1
    54   25   30 ar
    55   25   26 ar
    56   26   27 ar
    57   26   55 1
    58   27   28 ar
    59   27   56 1
    60   28   29 ar
    61   28   57 1
    62   29   30 ar
    63   29   58 1
    64   30   59 1
    65   31   60 1
@<TRIPOS>MOLECULE
ZINC04168468
   58    61     0     0     0
SMALL
USER_CHARGES
6-[(4-benzyl-1-piperidyl)methyl]-N'-(p-tolyl)-1,3,5-triazine-2,4-diamine
@<TRIPOS>ATOM
      1 C1          1.2206   -2.1876    0.0244 C.3       1 <0>        -0.1199
      2 C2          1.2049   -0.6807    0.0206 C.ar      1 <0>        -0.0855
      3 C3          2.1430    0.0209    0.7554 C.ar      1 <0>        -0.1027
      4 C4          2.1317    1.4019    0.7537 C.ar      1 <0>        -0.1031
      5 C5          1.1767    2.0861    0.0128 C.ar      1 <0>         0.1311
      6 C6          0.2361    1.3784   -0.7245 C.ar      1 <0>        -0.1310
      7 C7          0.2527   -0.0026   -0.7181 C.ar      1 <0>        -0.0996
      8 N1          1.1621    3.4843    0.0092 N.pl3     1 <0>        -0.6109
      9 C8          2.3471    4.1876    0.1059 C.ar      1 <0>         0.6366
     10 N2          2.3280    5.5149    0.2077 N.ar      1 <0>        -0.6201
     11 C9          3.4608    6.1880    0.3058 C.ar      1 <0>         0.3819
     12 N3          4.6172    5.5481    0.2924 N.ar      1 <0>        -0.6218
     13 C10         4.6445    4.2217    0.1855 C.ar      1 <0>         0.6394
     14 N4          3.5074    3.5409    0.0921 N.ar      1 <0>        -0.6195
     15 N5          5.8524    3.5544    0.1720 N.pl3     1 <0>        -0.7899
     16 C11         3.4344    7.6899    0.4276 C.3       1 <0>         0.0798
     17 C12         2.5301    7.6189   -1.8169 C.3       1 <0>         0.0018
     18 C13         2.7001    8.1709   -3.2341 C.3       1 <0>        -0.1444
     19 C14         2.4390    9.6796   -3.2237 C.3       1 <0>        -0.0936
     20 C15         3.4006   10.3492   -2.2380 C.3       1 <0>        -0.1434
     21 C16         3.2104    9.7341   -0.8497 C.3       1 <0>         0.0014
     22 C17         2.6657   10.2488   -4.6257 C.3       1 <0>        -0.0744
     23 C18         1.6386    9.6804   -5.5707 C.ar      1 <0>        -0.0945
     24 C19         1.9048    8.5117   -6.2594 C.ar      1 <0>        -0.1214
     25 C20         0.9609    7.9880   -7.1229 C.ar      1 <0>        -0.1166
     26 C21        -0.2454    8.6380   -7.3050 C.ar      1 <0>        -0.1163
     27 C22        -0.5097    9.8093   -6.6199 C.ar      1 <0>        -0.1138
     28 C23         0.4324   10.3307   -5.7531 C.ar      1 <0>        -0.1153
     29 H1          0.5927   -2.5555    0.8360 H         1 <0>         0.0748
     30 H2          0.8382   -2.5574   -0.9270 H         1 <0>         0.0696
     31 H3          2.2421   -2.5400    0.1670 H         1 <0>         0.0690
     32 H4          2.8851   -0.5118    1.3316 H         1 <0>         0.1281
     33 H5          2.8619    1.9492    1.3313 H         1 <0>         0.1313
     34 H6         -0.5074    1.9074   -1.3023 H         1 <0>         0.1274
     35 H7         -0.4786   -0.5535   -1.2910 H         1 <0>         0.1313
     36 H8          0.3199    3.9604   -0.0612 H         1 <0>         0.4297
     37 H9          5.8716    2.5877    0.0944 H         1 <0>         0.4263
     38 H10         6.6822    4.0521    0.2402 H         1 <0>         0.4246
     39 H11         2.5214    7.9970    0.9378 H         1 <0>         0.1589
     40 H12         4.3001    8.0233    0.9997 H         1 <0>         0.1572
     41 H13         2.7293    6.5473   -1.8183 H         1 <0>         0.1152
     42 H14         1.5100    7.7981   -1.4773 H         1 <0>         0.1374
     43 H15         1.9900    7.6833   -3.9021 H         1 <0>         0.1138
     44 H16         3.7160    7.9797   -3.5798 H         1 <0>         0.0858
     45 H17         1.4109    9.8693   -2.9154 H         1 <0>         0.0923
     46 H18         3.1911   11.4180   -2.1943 H         1 <0>         0.1163
     47 H19         4.4275   10.1923   -2.5680 H         1 <0>         0.0902
     48 H20         2.1871    9.9034   -0.5145 H         1 <0>         0.1345
     49 H21         3.9037   10.1987   -0.1486 H         1 <0>         0.1341
     50 H22         2.5714   11.3343   -4.5968 H         1 <0>         0.0840
     51 H23         3.6643    9.9798   -4.9699 H         1 <0>         0.0780
     52 H24         2.8489    8.0061   -6.1202 H         1 <0>         0.1184
     53 H25         1.1673    7.0728   -7.6578 H         1 <0>         0.1236
     54 H26        -0.9815    8.2307   -7.9822 H         1 <0>         0.1250
     55 H27        -1.4522   10.3171   -6.7622 H         1 <0>         0.1254
     56 H28         0.2261   11.2459   -5.2182 H         1 <0>         0.1222
     57 N6          3.5000    8.2861   -0.9227 N.4       1 <0>        -0.3894
     58 H29         4.4458    8.1542   -1.2998 H         1 <0>         0.4305
@<TRIPOS>BOND
     1    1    2 1
     2    1   29 1
     3    1   30 1
     4    1   31 1
     5    2    7 ar
     6    2    3 ar
     7    3    4 ar
     8    3   32 1
     9    4    5 ar
    10    4   33 1
    11    5    6 ar
    12    5    8 1
    13    6    7 ar
    14    6   34 1
    15    7   35 1
    16    8    9 1
    17    8   36 1
    18    9   14 ar
    19    9   10 ar
    20   10   11 ar
    21   11   12 ar
    22   11   16 1
    23   12   13 ar
    24   13   14 ar
    25   13   15 1
    26   15   37 1
    27   15   38 1
    28   16   39 1
    29   16   40 1
    30   16   57 1
    31   17   18 1
    32   17   41 1
    33   17   42 1
    34   17   57 1
    35   18   19 1
    36   18   43 1
    37   18   44 1
    38   19   20 1
    39   19   22 1
    40   19   45 1
    41   20   21 1
    42   20   46 1
    43   20   47 1
    44   21   48 1
    45   21   49 1
    46   21   57 1
    47   22   23 1
    48   22   50 1
    49   22   51 1
    50   23   28 ar
    51   23   24 ar
    52   24   25 ar
    53   24   52 1
    54   25   26 ar
    55   25   53 1
    56   26   27 ar
    57   26   54 1
    58   27   28 ar
    59   27   55 1
    60   28   56 1
    61   57   58 1
@<TRIPOS>MOLECULE
ZINC04256608
   81    82     0     0     0
SMALL
USER_CHARGES
3-(3,5-ditert-butyl-4-hydroxy-phenyl)propyl 2-oxo-2-[(2,2,6,6-tetramethyl-4-piperidyl)amino]acetate
@<TRIPOS>ATOM
      1 C1         -2.1415    0.4796   -1.0243 C.3       1 <0>        -0.1837
      2 C2         -1.0411    1.5509   -0.8526 C.3       1 <0>         0.0663
      3 C3         -0.5306    1.9110   -2.2453 C.3       1 <0>        -0.1434
      4 C4          0.7550    2.7321   -2.1500 C.3       1 <0>         0.1397
      5 C5          1.8059    1.8982   -1.4150 C.3       1 <0>        -0.1384
      6 C6          1.3205    1.5765   -0.0021 C.3       1 <0>         0.0680
      7 C7          1.3969    2.8335    0.8697 C.3       1 <0>        -0.1770
      8 C8          2.2944    0.5394    0.5991 C.3       1 <0>        -0.1840
      9 N1          1.2384    3.0331   -3.5033 N.am      1 <0>        -0.7018
     10 C9          0.7807    4.1197   -4.1562 C.2       1 <0>         0.5393
     11 O1         -0.0309    4.8492   -3.6256 O.2       1 <0>        -0.4759
     12 C10         1.2727    4.4261   -5.5336 C.2       1 <0>         0.4576
     13 O2          2.0837    3.6971   -6.0638 O.2       1 <0>        -0.4767
     14 O3          0.8158    5.5107   -6.1854 O.3       1 <0>        -0.3237
     15 C11         1.3375    5.7463   -7.5198 C.3       1 <0>         0.0644
     16 C12         0.7069    7.0150   -8.0973 C.3       1 <0>        -0.1150
     17 C13         1.2565    7.2632   -9.5034 C.3       1 <0>        -0.0738
     18 C14         0.6354    8.5128  -10.0723 C.ar      1 <0>        -0.0901
     19 C15        -0.5367    8.4307  -10.8011 C.ar      1 <0>        -0.1085
     20 C16        -1.1111    9.5755  -11.3188 C.ar      1 <0>        -0.0875
     21 C17        -0.5048   10.8068  -11.1165 C.ar      1 <0>         0.1158
     22 C18         0.6742   10.8858  -10.3896 C.ar      1 <0>        -0.0874
     23 C19         1.2416    9.7388   -9.8692 C.ar      1 <0>        -0.1084
     24 C20         1.3356   12.2217  -10.1684 C.3       1 <0>        -0.0217
     25 C21         2.6098   12.0295   -9.3435 C.3       1 <0>        -0.1458
     26 C22         1.6921   12.8444  -11.5198 C.3       1 <0>        -0.1428
     27 C23         0.3766   13.1475   -9.4174 C.3       1 <0>        -0.1417
     28 O4         -1.0652   11.9338  -11.6291 O.3       1 <0>        -0.4858
     29 C24        -2.3919    9.4861  -12.1079 C.3       1 <0>        -0.0216
     30 C25        -2.8448    8.0265  -12.1814 C.3       1 <0>        -0.1457
     31 C26        -3.4737   10.3218  -11.4208 C.3       1 <0>        -0.1417
     32 C27        -2.1575   10.0191  -13.5228 C.3       1 <0>        -0.1429
     33 C28        -1.7018    2.7794   -0.2158 C.3       1 <0>        -0.1749
     34 H1         -2.5604    0.2295   -0.0495 H         1 <0>         0.0843
     35 H2         -2.9295    0.8683   -1.6694 H         1 <0>         0.1065
     36 H3         -1.7110   -0.4146   -1.4750 H         1 <0>         0.0814
     37 H4         -1.2920    2.4906   -2.7727 H         1 <0>         0.1176
     38 H5         -0.3342    0.9953   -2.8082 H         1 <0>         0.0958
     39 H6          0.5725    3.6647   -1.6239 H         1 <0>         0.1134
     40 H7          2.7404    2.4593   -1.3596 H         1 <0>         0.1214
     41 H8          1.9788    0.9691   -1.9607 H         1 <0>         0.0997
     42 H9          1.1377    2.5792    1.8975 H         1 <0>         0.0856
     43 H10         2.4096    3.2357    0.8394 H         1 <0>         0.1074
     44 H11         0.6980    3.5802    0.4928 H         1 <0>         0.0835
     45 H12         2.2725   -0.3702   -0.0011 H         1 <0>         0.0825
     46 H13         3.3047    0.9487    0.6020 H         1 <0>         0.1072
     47 H14         1.9933    0.3079    1.6208 H         1 <0>         0.0850
     48 H15         1.8872    2.4500   -3.9274 H         1 <0>         0.4199
     49 H16         2.4195    5.8683   -7.4706 H         1 <0>         0.0802
     50 H17         1.0963    4.8971   -8.1593 H         1 <0>         0.0800
     51 H18        -0.3752    6.8929   -8.1465 H         1 <0>         0.0800
     52 H19         0.9480    7.8641   -7.4578 H         1 <0>         0.0803
     53 H20         2.3386    7.3852   -9.4542 H         1 <0>         0.0775
     54 H21         1.0154    6.4141  -10.1429 H         1 <0>         0.0773
     55 H22        -1.0059    7.4714  -10.9621 H         1 <0>         0.1282
     56 H23         2.1596    9.7998   -9.3036 H         1 <0>         0.1283
     57 H24         3.2930   11.3699   -9.8785 H         1 <0>         0.0572
     58 H25         3.0882   12.9957   -9.1834 H         1 <0>         0.0599
     59 H26         2.3559   11.5859   -8.3807 H         1 <0>         0.0570
     60 H27         0.7844   12.9813  -12.1075 H         1 <0>         0.0585
     61 H28         2.1705   13.8106  -11.3597 H         1 <0>         0.0614
     62 H29         2.3753   12.1848  -12.0548 H         1 <0>         0.0540
     63 H30         0.1227   12.7039   -8.4546 H         1 <0>         0.0500
     64 H31         0.8551   14.1137   -9.2573 H         1 <0>         0.0548
     65 H32        -0.5311   13.2844  -10.0051 H         1 <0>         0.0752
     66 H33        -0.7620   12.1533  -12.5207 H         1 <0>         0.3823
     67 H34        -3.0118    7.6467  -11.1734 H         1 <0>         0.0569
     68 H35        -3.7711    7.9618  -12.7521 H         1 <0>         0.0598
     69 H36        -2.0741    7.4311  -12.6709 H         1 <0>         0.0572
     70 H37        -3.1510   11.3616  -11.3685 H         1 <0>         0.0753
     71 H38        -4.4000   10.2571  -11.9915 H         1 <0>         0.0547
     72 H39        -3.6407    9.9420  -10.4128 H         1 <0>         0.0499
     73 H40        -1.3868    9.4237  -14.0123 H         1 <0>         0.0541
     74 H41        -3.0838    9.9544  -14.0935 H         1 <0>         0.0614
     75 H42        -1.8348   11.0590  -13.4705 H         1 <0>         0.0586
     76 H43        -0.9489    3.5485   -0.0433 H         1 <0>         0.0826
     77 H44        -2.4701    3.1667   -0.8851 H         1 <0>         0.1075
     78 H45        -2.1562    2.4964    0.7337 H         1 <0>         0.0836
     79 N2         -0.0272    0.9470    0.0527 N.4       1 <0>        -0.5095
     80 H46         0.0736   -0.0435   -0.1980 H         1 <0>         0.4300
     81 H47        -0.3751    1.0227    1.0157 H         1 <0>         0.4333
@<TRIPOS>BOND
     1    1    2 1
     2    1   34 1
     3    1   35 1
     4    1   36 1
     5    2    3 1
     6    2   33 1
     7    2   79 1
     8    3    4 1
     9    3   37 1
    10    3   38 1
    11    4    5 1
    12    4    9 1
    13    4   39 1
    14    5    6 1
    15    5   40 1
    16    5   41 1
    17    6    7 1
    18    6    8 1
    19    6   79 1
    20    7   42 1
    21    7   43 1
    22    7   44 1
    23    8   45 1
    24    8   46 1
    25    8   47 1
    26    9   10 am
    27    9   48 1
    28   10   11 2
    29   10   12 1
    30   12   13 2
    31   12   14 1
    32   14   15 1
    33   15   16 1
    34   15   49 1
    35   15   50 1
    36   16   17 1
    37   16   51 1
    38   16   52 1
    39   17   18 1
    40   17   53 1
    41   17   54 1
    42   18   23 ar
    43   18   19 ar
    44   19   20 ar
    45   19   55 1
    46   20   21 ar
    47   20   29 1
    48   21   22 ar
    49   21   28 1
    50   22   23 ar
    51   22   24 1
    52   23   56 1
    53   24   25 1
    54   24   26 1
    55   24   27 1
    56   25   57 1
    57   25   58 1
    58   25   59 1
    59   26   60 1
    60   26   61 1
    61   26   62 1
    62   27   63 1
    63   27   64 1
    64   27   65 1
    65   28   66 1
    66   29   30 1
    67   29   31 1
    68   29   32 1
    69   30   67 1
    70   30   68 1
    71   30   69 1
    72   31   70 1
    73   31   71 1
    74   31   72 1
    75   32   73 1
    76   32   74 1
    77   32   75 1
    78   33   76 1
    79   33   77 1
    80   33   78 1
    81   79   80 1
    82   79   81 1
@<TRIPOS>MOLECULE
ZINC34929383
   59    61     0     0     0
SMALL
USER_CHARGES

@<TRIPOS>ATOM
      1 C1         -0.0187    1.5258    0.0104 C.3       1 <0>        -0.1819
      2 C2          0.0021   -0.0041    0.0020 C.3       1 <0>         0.0142
      3 H1         -1.0205   -0.3815    0.0098 H         1 <0>         0.1423
      4 C3          0.7196   -0.4984   -1.2584 C.3       1 <0>         0.0940
      5 N1          0.8426   -1.9623   -1.1812 N.am      1 <0>        -0.6364
      6 C4          1.3963   -2.5474    0.0497 C.3       1 <0>         0.0773
      7 C5          0.6469   -1.9564    1.2484 C.3       1 <0>        -0.0217
      8 N2          0.7126   -0.4906    1.1914 N.4       1 <0>        -0.5044
      9 C6          0.4585   -2.7452   -2.2088 C.2       1 <0>         0.5065
     10 O1          0.0037   -2.2446   -3.2155 O.2       1 <0>        -0.4678
     11 C7          0.5939   -4.2426   -2.1068 C.3       1 <0>         0.1654
     12 H2          0.3187   -4.5648   -1.1026 H         1 <0>         0.1145
     13 C8          2.0424   -4.6442   -2.3923 C.3       1 <0>        -0.0597
     14 C9          2.2059   -6.1259   -2.1706 C.2       1 <0>        -0.1782
     15 C10         2.6309   -6.7229   -1.0460 C.2       1 <0>         0.0566
     16 N3          2.6508   -8.0803   -1.2171 N.pl3     1 <0>        -0.5922
     17 H3          2.9222   -8.7230   -0.5432 H         1 <0>         0.4184
     18 C11         2.2283   -8.3981   -2.4885 C.ar      1 <0>         0.0951
     19 C12         1.9250   -7.1881   -3.1395 C.ar      1 <0>        -0.0951
     20 C13         1.4615   -7.2027   -4.4561 C.ar      1 <0>        -0.0797
     21 C14         1.3012   -8.3943   -5.1057 C.ar      1 <0>        -0.1389
     22 C15         1.5951   -9.5907   -4.4667 C.ar      1 <0>        -0.0918
     23 C16         2.0626   -9.5988   -3.1705 C.ar      1 <0>        -0.1298
     24 N4         -0.2914   -4.8807   -3.0842 N.am      1 <0>        -0.6998
     25 C17        -0.1367   -4.6285   -4.3991 C.2       1 <0>         0.6625
     26 O2          0.7372   -3.8719   -4.7739 O.2       1 <0>        -0.5429
     27 O3         -0.9503   -5.2149   -5.2973 O.3       1 <0>        -0.3569
     28 C18        -0.7293   -4.9022   -6.6741 C.3       1 <0>         0.1385
     29 C19         0.6886   -5.3186   -7.0704 C.3       1 <0>        -0.1924
     30 C20        -1.7425   -5.6566   -7.5374 C.3       1 <0>        -0.1432
     31 C21        -0.8975   -3.3967   -6.8885 C.3       1 <0>        -0.1844
     32 H4          1.0039    1.9031    0.0027 H         1 <0>         0.0852
     33 H5         -0.5459    1.8868   -0.8726 H         1 <0>         0.1104
     34 H6         -0.5289    1.8773    0.9072 H         1 <0>         0.0876
     35 H7          0.1403   -0.2255   -2.1405 H         1 <0>         0.1350
     36 H8          1.7115   -0.0499   -1.3149 H         1 <0>         0.0957
     37 H9          1.2645   -3.6293    0.0325 H         1 <0>         0.1304
     38 H10         2.4566   -2.3059    0.1253 H         1 <0>         0.1018
     39 H11        -0.3951   -2.2749    1.2185 H         1 <0>         0.1360
     40 H12         1.1072   -2.3052    2.1728 H         1 <0>         0.1490
     41 H13         1.6778   -0.2000    1.1474 H         1 <0>         0.4276
     42 H14         2.2897   -4.4020   -3.4258 H         1 <0>         0.1070
     43 H15         2.7089   -4.1009   -1.7223 H         1 <0>         0.0799
     44 H16         2.9154   -6.2080   -0.1402 H         1 <0>         0.1665
     45 H17         1.2302   -6.2756   -4.9595 H         1 <0>         0.1250
     46 H18         0.9426   -8.4050   -6.1244 H         1 <0>         0.1219
     47 H19         1.4626  -10.5244   -4.9930 H         1 <0>         0.1280
     48 H20         2.2873  -10.5352   -2.6815 H         1 <0>         0.1217
     49 H21        -0.9890   -5.4847   -2.7850 H         1 <0>         0.4129
     50 H22         0.8084   -6.3912   -6.9177 H         1 <0>         0.0639
     51 H23         0.8571   -5.0801   -8.1205 H         1 <0>         0.0731
     52 H24         1.4104   -4.7812   -6.4553 H         1 <0>         0.0870
     53 H25        -2.7526   -5.3600   -7.2550 H         1 <0>         0.0667
     54 H26        -1.5739   -5.4181   -8.5875 H         1 <0>         0.0825
     55 H27        -1.6227   -6.7292   -7.3846 H         1 <0>         0.0679
     56 H28        -0.1757   -2.8593   -6.2734 H         1 <0>         0.0902
     57 H29        -0.7289   -3.1582   -7.9386 H         1 <0>         0.0692
     58 H30        -1.9076   -3.1001   -6.6061 H         1 <0>         0.0569
     59 H31         0.2847   -0.1035    2.0191 H         1 <0>         0.4329
@<TRIPOS>BOND
     1    1    2 1
     2    1   32 1
     3    1   33 1
     4    1   34 1
     5    2    3 1
     6    2    8 1
     7    2    4 1
     8    4    5 1
     9    4   35 1
    10    4   36 1
    11    5    6 1
    12    5    9 am
    13    6    7 1
    14    6   37 1
    15    6   38 1
    16    7    8 1
    17    7   39 1
    18    7   40 1
    19    8   41 1
    20    8   59 1
    21    9   10 2
    22    9   11 1
    23   11   12 1
    24   11   13 1
    25   11   24 1
    26   13   14 1
    27   13   42 1
    28   13   43 1
    29   14   19 1
    30   14   15 2
    31   15   16 1
    32   15   44 1
    33   16   17 1
    34   16   18 1
    35   18   23 ar
    36   18   19 ar
    37   19   20 ar
    38   20   21 ar
    39   20   45 1
    40   21   22 ar
    41   21   46 1
    42   22   23 ar
    43   22   47 1
    44   23   48 1
    45   24   25 am
    46   24   49 1
    47   25   26 2
    48   25   27 1
    49   27   28 1
    50   28   29 1
    51   28   30 1
    52   28   31 1
    53   29   50 1
    54   29   51 1
    55   29   52 1
    56   30   53 1
    57   30   54 1
    58   30   55 1
    59   31   56 1
    60   31   57 1
    61   31   58 1
@<TRIPOS>MOLECULE
ZINC40702179
   56    59     0     0     0
SMALL
USER_CHARGES

@<TRIPOS>ATOM
      1 C1         -2.7460    0.6489   -1.4486 C.3       1 <0>        -0.1829
      2 C2         -1.5020    0.6423   -0.5579 C.3       1 <0>         0.1342
      3 N1         -1.3866   -0.6563    0.1103 N.pl3     1 <0>        -0.6046
      4 C3         -0.7456   -1.7152   -0.5304 C.ar      1 <0>         0.1491
      5 C4          0.6099   -1.9091   -0.3676 C.ar      1 <0>        -0.1065
      6 C5          1.2590   -2.9634   -1.0024 C.ar      1 <0>        -0.1179
      7 C6          0.5768   -3.8312   -1.8000 C.ar      1 <0>        -0.0868
      8 C7         -0.8056   -3.6689   -1.9924 C.ar      1 <0>        -0.0480
      9 C8         -1.4791   -2.6024   -1.3472 C.ar      1 <0>        -0.0487
     10 C9         -2.8608   -2.4447   -1.5365 C.ar      1 <0>        -0.1023
     11 C10        -3.5364   -3.3194   -2.3318 C.ar      1 <0>        -0.1118
     12 C11        -2.8760   -4.3718   -2.9627 C.ar      1 <0>        -0.1090
     13 C12        -1.5352   -4.5493   -2.8101 C.ar      1 <0>        -0.1067
     14 C13        -1.9165   -0.8324    1.3836 C.ar      1 <0>         0.4262
     15 C14        -1.1845   -0.4623    2.5136 C.ar      1 <0>         0.1170
     16 C15        -1.7638   -0.6610    3.7684 C.ar      1 <0>         0.4250
     17 N2         -2.9826   -1.1916    3.8390 N.ar      1 <0>        -0.5050
     18 C16        -3.6394   -1.5271    2.7473 C.ar      1 <0>         0.3320
     19 N3         -3.1315   -1.3514    1.5442 N.ar      1 <0>        -0.4563
     20 N4         -1.0783   -0.3106    4.9258 N.pl3     1 <0>        -0.6245
     21 C17        -1.7033   -0.4300    6.1728 C.ar      1 <0>         0.0260
     22 C18        -2.1198    0.7049    6.8537 C.ar      1 <0>        -0.0588
     23 C19        -2.7365    0.5843    8.0847 C.ar      1 <0>        -0.1387
     24 C20        -2.9395   -0.6653    8.6406 C.ar      1 <0>        -0.0454
     25 C21        -2.5267   -1.8008    7.9681 C.ar      1 <0>        -0.1952
     26 C22        -1.9138   -1.6891    6.7309 C.ar      1 <0>         0.1294
     27 O1         -1.5128   -2.8054    6.0656 O.3       1 <0>        -0.3190
     28 C23        -1.7614   -4.0623    6.6985 C.3       1 <0>         0.0511
     29 C24        -1.2449   -5.1932    5.8068 C.3       1 <0>        -0.1546
     30 N5          0.0986    0.0936    2.3915 N.pl3     1 <0>        -0.8342
     31 H1         -2.8319    1.6151   -1.9457 H         1 <0>         0.0719
     32 H2         -2.6609   -0.1387   -2.1973 H         1 <0>         0.0700
     33 H3         -3.6315    0.4749   -0.8372 H         1 <0>         0.0607
     34 H4         -0.6165    0.8163   -1.1693 H         1 <0>         0.0887
     35 H5         -1.5871    1.4299    0.1908 H         1 <0>         0.0745
     36 H6          1.1741   -1.2348    0.2595 H         1 <0>         0.1204
     37 H7          2.3215   -3.0956   -0.8605 H         1 <0>         0.1303
     38 H8          1.0981   -4.6434   -2.2847 H         1 <0>         0.1330
     39 H9         -3.3857   -1.6338   -1.0534 H         1 <0>         0.1385
     40 H10        -4.5997   -3.1959   -2.4755 H         1 <0>         0.1247
     41 H11        -3.4349   -5.0518   -3.5885 H         1 <0>         0.1267
     42 H12        -1.0364   -5.3692   -3.3055 H         1 <0>         0.1311
     43 H13        -4.6264   -1.9555    2.8413 H         1 <0>         0.2412
     44 H14        -0.1669    0.0167    4.8694 H         1 <0>         0.4352
     45 H15        -1.9618    1.6822    6.4222 H         1 <0>         0.1436
     46 H16        -3.0603    1.4684    8.6138 H         1 <0>         0.1443
     47 H17        -3.4216   -0.7547    9.6029 H         1 <0>         0.1435
     48 H18        -2.6862   -2.7753    8.4056 H         1 <0>         0.1453
     49 H19        -1.2473   -4.0933    7.6591 H         1 <0>         0.0734
     50 H20        -2.8331   -4.1842    6.8558 H         1 <0>         0.0707
     51 H21        -1.4345   -6.1519    6.2895 H         1 <0>         0.0894
     52 H22        -1.7590   -5.1622    4.8462 H         1 <0>         0.0644
     53 H23        -0.1732   -5.0713    5.6495 H         1 <0>         0.0690
     54 H24         0.4564    0.2996    1.5138 H         1 <0>         0.4245
     55 H25         0.6275    0.2719    3.1849 H         1 <0>         0.4078
     56 H26        -3.3927   -1.3335    4.7065 H         1 <0>         0.4441
@<TRIPOS>BOND
     1    1    2 1
     2    1   31 1
     3    1   32 1
     4    1   33 1
     5    2    3 1
     6    2   34 1
     7    2   35 1
     8    3    4 1
     9    3   14 1
    10    4    9 ar
    11    4    5 ar
    12    5    6 ar
    13    5   36 1
    14    6    7 ar
    15    6   37 1
    16    7    8 ar
    17    7   38 1
    18    8   13 ar
    19    8    9 ar
    20    9   10 ar
    21   10   11 ar
    22   10   39 1
    23   11   12 ar
    24   11   40 1
    25   12   13 ar
    26   12   41 1
    27   13   42 1
    28   14   19 ar
    29   14   15 ar
    30   15   16 ar
    31   15   30 1
    32   16   17 ar
    33   16   20 1
    34   17   18 ar
    35   17   56 1
    36   18   19 ar
    37   18   43 1
    38   20   21 1
    39   20   44 1
    40   21   26 ar
    41   21   22 ar
    42   22   23 ar
    43   22   45 1
    44   23   24 ar
    45   23   46 1
    46   24   25 ar
    47   24   47 1
    48   25   26 ar
    49   25   48 1
    50   26   27 1
    51   27   28 1
    52   28   29 1
    53   28   49 1
    54   28   50 1
    55   29   51 1
    56   29   52 1
    57   29   53 1
    58   30   54 1
    59   30   55 1
@<TRIPOS>MOLECULE
ZINC44465054
   58    60     0     0     0
SMALL
USER_CHARGES

@<TRIPOS>ATOM
      1 C1          0.9746    1.2802    1.0726 C.3       1 <0>        -0.1398
      2 C2          0.8119   -0.2237    0.8428 C.3       1 <0>        -0.0337
      3 C3          1.6437   -0.9900    1.8732 C.3       1 <0>        -0.1417
      4 C4         -0.6622   -0.6057    0.9914 C.3       1 <0>        -0.1495
      5 C5          1.2841   -0.5738   -0.5448 C.ar      1 <0>        -0.0511
      6 C6          0.4066   -1.1448   -1.4486 C.ar      1 <0>        -0.0976
      7 C7          0.8359   -1.4669   -2.7208 C.ar      1 <0>        -0.0809
      8 C8          2.1512   -1.2163   -3.0928 C.ar      1 <0>        -0.1340
      9 C9          3.0300   -0.6420   -2.1822 C.ar      1 <0>        -0.1320
     10 C10         2.5925   -0.3181   -0.9132 C.ar      1 <0>        -0.0964
     11 S1          2.7035   -1.6262   -4.7150 S.3       1 <0>         0.0803
     12 C11         4.3967   -1.1387   -4.7247 C.2       1 <0>         0.0593
     13 C12         4.9618   -0.2168   -5.5498 C.2       1 <0>        -0.2211
     14 C13         6.3280   -0.1298   -5.2252 C.2       1 <0>         0.1077
     15 N1          6.5708   -0.9696   -4.2414 N.2       1 <0>        -0.2389
     16 N2          5.3726   -1.6121   -3.9048 N.pl3     1 <0>        -0.3354
     17 C14         5.2015   -2.6200   -2.8554 C.3       1 <0>         0.0764
     18 C15         7.3234    0.7560   -5.8792 C.ar      1 <0>        -0.0480
     19 C16         8.2532    1.4512   -5.1091 C.ar      1 <0>        -0.0966
     20 C17         9.1770    2.2732   -5.7224 C.ar      1 <0>        -0.1128
     21 C18         9.1804    2.4076   -7.0991 C.ar      1 <0>        -0.0984
     22 C19         8.2592    1.7200   -7.8684 C.ar      1 <0>        -0.1144
     23 C20         7.3351    0.8906   -7.2659 C.ar      1 <0>        -0.1078
     24 C21         4.2514    0.5708   -6.6204 C.3       1 <0>        -0.0663
     25 C22         3.6011    1.8075   -5.9971 C.3       1 <0>         0.0368
     26 H1          2.9500    1.5019   -5.1781 H         1 <0>         0.1481
     27 C23         2.7768    2.5397   -7.0579 C.3       1 <0>         0.0529
     28 O1          2.0768    3.6272   -6.4502 O.3       1 <0>        -0.5795
     29 N3          4.6457    2.7038   -5.4838 N.4       1 <0>        -0.6329
     30 H2          2.0247    1.5524    0.9668 H         1 <0>         0.0549
     31 H3          0.3820    1.8262    0.3386 H         1 <0>         0.0571
     32 H4          0.6330    1.5335    2.0763 H         1 <0>         0.0653
     33 H5          1.3021   -0.7367    2.8768 H         1 <0>         0.0653
     34 H6          1.5278   -2.0614    1.7095 H         1 <0>         0.0589
     35 H7          2.6938   -0.7178    1.7673 H         1 <0>         0.0559
     36 H8         -1.2548   -0.0598    0.2573 H         1 <0>         0.0606
     37 H9         -0.7781   -1.6771    0.8277 H         1 <0>         0.0614
     38 H10        -1.0038   -0.3525    1.9950 H         1 <0>         0.0650
     39 H11        -0.6154   -1.3393   -1.1588 H         1 <0>         0.1407
     40 H12         0.1503   -1.9134   -3.4258 H         1 <0>         0.1337
     41 H13         4.0529   -0.4462   -2.4678 H         1 <0>         0.1168
     42 H14         3.2737    0.1320   -0.2063 H         1 <0>         0.1276
     43 H15         5.3694   -3.6123   -3.2740 H         1 <0>         0.0950
     44 H16         5.9189   -2.4370   -2.0554 H         1 <0>         0.1044
     45 H17         4.1891   -2.5605   -2.4561 H         1 <0>         0.1014
     46 H18         8.2510    1.3475   -4.0341 H         1 <0>         0.1301
     47 H19         9.8982    2.8126   -5.1264 H         1 <0>         0.1339
     48 H20         9.9047    3.0521   -7.5749 H         1 <0>         0.1330
     49 H21         8.2658    1.8291   -8.9429 H         1 <0>         0.1349
     50 H22         6.6191    0.3507   -7.8679 H         1 <0>         0.1321
     51 H23         4.9691    0.8813   -7.3797 H         1 <0>         0.1070
     52 H24         3.4830   -0.0513   -7.0796 H         1 <0>         0.1261
     53 H25         3.4404    2.9227   -7.8332 H         1 <0>         0.0752
     54 H26         2.0600    1.8489   -7.5017 H         1 <0>         0.0990
     55 H27         1.5323    4.1373   -7.0654 H         1 <0>         0.4102
     56 H28         5.2484    2.9867   -6.2420 H         1 <0>         0.4297
     57 H29         4.2169    3.5194   -5.0727 H         1 <0>         0.4407
     58 H30         5.1893    2.2209   -4.7843 H         1 <0>         0.4314
@<TRIPOS>BOND
     1    1    2 1
     2    1   30 1
     3    1   31 1
     4    1   32 1
     5    2    3 1
     6    2    4 1
     7    2    5 1
     8    3   33 1
     9    3   34 1
    10    3   35 1
    11    4   36 1
    12    4   37 1
    13    4   38 1
    14    5   10 ar
    15    5    6 ar
    16    6    7 ar
    17    6   39 1
    18    7    8 ar
    19    7   40 1
    20    8    9 ar
    21    8   11 1
    22    9   10 ar
    23    9   41 1
    24   10   42 1
    25   11   12 1
    26   12   16 1
    27   12   13 2
    28   13   14 1
    29   13   24 1
    30   14   15 2
    31   14   18 1
    32   15   16 1
    33   16   17 1
    34   17   43 1
    35   17   44 1
    36   17   45 1
    37   18   23 ar
    38   18   19 ar
    39   19   20 ar
    40   19   46 1
    41   20   21 ar
    42   20   47 1
    43   21   22 ar
    44   21   48 1
    45   22   23 ar
    46   22   49 1
    47   23   50 1
    48   24   25 1
    49   24   51 1
    50   24   52 1
    51   25   26 1
    52   25   27 1
    53   25   29 1
    54   27   28 1
    55   27   53 1
    56   27   54 1
    57   28   55 1
    58   29   56 1
    59   29   57 1
    60   29   58 1
@<TRIPOS>MOLECULE
ZINC02905315
   40    41     0     0     0
SMALL
USER_CHARGES
N-[2,2,2-trichloro-1-[(4-sulfamoylphenyl)thiocarbamoylamino]ethyl]furan-2-carboxamide
@<TRIPOS>ATOM
      1 C1          5.9237    7.6228   -5.0392 C.2       1 <0>        -0.2239
      2 C2          5.9978    6.7082   -3.9770 C.2       1 <0>        -0.1048
      3 C3          5.0657    7.0973   -3.0582 C.2       1 <0>        -0.0890
      4 O1          4.4437    8.1959   -3.5340 O.3       1 <0>        -0.1670
      5 C4          4.9618    8.5188   -4.7261 C.2       1 <0>         0.0015
      6 C5          4.7855    6.4336   -1.7807 C.2       1 <0>         0.6076
      7 O2          5.4121    5.4407   -1.4606 O.2       1 <0>        -0.4558
      8 N1          3.8341    6.9233   -0.9614 N.am      1 <0>        -0.7275
      9 C6          3.5542    6.2603    0.3147 C.3       1 <0>         0.3608
     10 H1          4.3661    5.5732    0.5529 H         1 <0>         0.2010
     11 C7          3.4346    7.3114    1.4201 C.3       1 <0>         0.1071
     12 Cl1         3.0901    6.4954    2.9905 Cl        1 <0>        -0.0539
     13 Cl2         4.9812    8.2294    1.5463 Cl        1 <0>        -0.0443
     14 Cl3         2.0915    8.4479    1.0260 Cl        1 <0>        -0.0854
     15 N2          2.2975    5.5144    0.2121 N.pl3     1 <0>        -0.6910
     16 C8          2.3180    4.1711    0.1036 C.2       1 <0>         0.5466
     17 S1          3.8128    3.3366    0.0857 S.2       1 <0>        -0.5283
     18 N3          1.1619    3.4849    0.0092 N.pl3     1 <0>        -0.6329
     19 C9          1.1765    2.0861    0.0133 C.ar      1 <0>         0.1890
     20 C10         2.0100    1.4014    0.8881 C.ar      1 <0>        -0.0967
     21 C11         2.0217    0.0203    0.8900 C.ar      1 <0>        -0.0068
     22 C12         1.2047   -0.6807    0.0221 C.ar      1 <0>        -0.6727
     23 C13         0.3739   -0.0019   -0.8505 C.ar      1 <0>        -0.0084
     24 C14         0.3578    1.3790   -0.8577 C.ar      1 <0>        -0.1446
     25 S2          1.2226   -2.4426    0.0277 S.o2      1 <0>         2.7012
     26 O3          0.7703   -2.8574   -1.2540 O.2       1 <0>        -0.9623
     27 O4          2.4830   -2.8342    0.5543 O.2       1 <0>        -0.9589
     28 N4          0.0791   -2.9404    1.1171 N.pl3     1 <0>        -1.2501
     29 H2          6.5228    7.6124   -5.9377 H         1 <0>         0.1603
     30 H3          6.6635    5.8611   -3.9010 H         1 <0>         0.1641
     31 H4          4.6579    9.3550   -5.3383 H         1 <0>         0.2130
     32 H5          3.3346    7.7147   -1.2165 H         1 <0>         0.4092
     33 H6          1.4506    5.9872    0.2223 H         1 <0>         0.4023
     34 H7          0.3197    3.9609   -0.0616 H         1 <0>         0.4114
     35 H8          2.6451    1.9483    1.5692 H         1 <0>         0.1542
     36 H9          2.6700   -0.5127    1.5697 H         1 <0>         0.1507
     37 H10        -0.2628   -0.5524   -1.5273 H         1 <0>         0.1495
     38 H11        -0.2913    1.9086   -1.5394 H         1 <0>         0.1370
     39 H12        -0.4443   -2.2851    1.6044 H         1 <0>         0.4164
     40 H13        -0.0673   -3.8874    1.2679 H         1 <0>         0.4216
@<TRIPOS>BOND
     1    1    5 2
     2    1    2 1
     3    1   29 1
     4    2    3 2
     5    2   30 1
     6    3    4 1
     7    3    6 1
     8    4    5 1
     9    5   31 1
    10    6    7 2
    11    6    8 am
    12    8    9 1
    13    8   32 1
    14    9   10 1
    15    9   11 1
    16    9   15 1
    17   11   12 1
    18   11   13 1
    19   11   14 1
    20   15   16 1
    21   15   33 1
    22   16   17 2
    23   16   18 1
    24   18   19 1
    25   18   34 1
    26   19   24 ar
    27   19   20 ar
    28   20   21 ar
    29   20   35 1
    30   21   22 ar
    31   21   36 1
    32   22   23 ar
    33   22   25 1
    34   23   24 ar
    35   23   37 1
    36   24   38 1
    37   25   26 2
    38   25   27 2
    39   25   28 1
    40   28   39 1
    41   28   40 1
@<TRIPOS>MOLECULE
ZINC16666951
   52    53     0     0     0
SMALL
USER_CHARGES
N,N'-bis[(2,4-dihydroxyphenyl)methyleneamino]hexanediamide
@<TRIPOS>ATOM
      1 C1         14.5924   -0.3314   -0.2448 C.ar      1 <0>        -0.1469
      2 C2         14.5569    1.0461   -0.2383 C.ar      1 <0>        -0.0977
      3 C3         15.7324    1.7731   -0.0356 C.ar      1 <0>        -0.1445
      4 C4         16.9455    1.0952    0.1553 C.ar      1 <0>         0.1593
      5 C5         16.9675   -0.2881    0.1514 C.ar      1 <0>        -0.1683
      6 C6         15.7943   -1.0011   -0.0503 C.ar      1 <0>         0.1418
      7 O1         15.8209   -2.3592   -0.0582 O.3       1 <0>        -0.4952
      8 O2         18.0936    1.7944    0.3479 O.3       1 <0>        -0.4892
      9 C7         15.6992    3.2458   -0.0283 C.2       1 <0>         0.1168
     10 N1         14.6060    3.8689    0.2914 N.2       1 <0>        -0.2206
     11 N2         13.5380    3.1628    0.8603 N.am      1 <0>        -0.5954
     12 C8         12.3646    3.7850    1.0893 C.2       1 <0>         0.5242
     13 O3         12.2332    4.9566    0.8029 O.2       1 <0>        -0.5005
     14 C9         11.2158    3.0255    1.7012 C.3       1 <0>        -0.1367
     15 C10        10.0118    3.9572    1.8532 C.3       1 <0>        -0.1051
     16 C11         8.8454    3.1860    2.4744 C.3       1 <0>        -0.1053
     17 C12         7.6414    4.1177    2.6264 C.3       1 <0>        -0.1348
     18 C13         6.4926    3.3582    3.2383 C.2       1 <0>         0.5288
     19 O4          6.6240    2.1866    3.5247 O.2       1 <0>        -0.4981
     20 N3          5.3192    3.9804    3.4674 N.am      1 <0>        -0.5900
     21 N4          4.2512    3.2743    4.0362 N.2       1 <0>        -0.2048
     22 C14         3.1209    3.8737    4.2569 C.2       1 <0>         0.1001
     23 C15         1.9979    3.1313    4.8550 C.ar      1 <0>        -0.0950
     24 C16         0.7803    3.7738    5.0941 C.ar      1 <0>        -0.0578
     25 C17        -0.2673    3.0760    5.6540 C.ar      1 <0>        -0.1596
     26 C18        -0.1194    1.7322    5.9772 C.ar      1 <0>         0.1403
     27 C19         1.0871    1.0868    5.7491 C.ar      1 <0>        -0.1818
     28 C20         2.1467    1.7771    5.1871 C.ar      1 <0>         0.1649
     29 O5          3.3268    1.1452    4.9584 O.3       1 <0>        -0.4710
     30 O6         -1.1591    1.0495    6.5234 O.3       1 <0>        -0.4975
     31 H1         13.6830   -0.8925   -0.4020 H         1 <0>         0.1402
     32 H2         13.6209    1.5633   -0.3895 H         1 <0>         0.1407
     33 H3         17.8991   -0.8133    0.3018 H         1 <0>         0.1433
     34 H4         15.9741   -2.7445   -0.9317 H         1 <0>         0.3993
     35 H5         18.2462    2.0546    1.2666 H         1 <0>         0.3996
     36 H6         16.5843    3.8072   -0.2890 H         1 <0>         0.1909
     37 H7         13.6431    2.2261    1.0893 H         1 <0>         0.3931
     38 H8         11.5099    2.6490    2.6810 H         1 <0>         0.1009
     39 H9         10.9486    2.1888    1.0557 H         1 <0>         0.0996
     40 H10         9.7177    4.3336    0.8735 H         1 <0>         0.0747
     41 H11        10.2790    4.7939    2.4987 H         1 <0>         0.0752
     42 H12         9.1395    2.8096    3.4542 H         1 <0>         0.0750
     43 H13         8.5782    2.3493    1.8290 H         1 <0>         0.0746
     44 H14         7.3473    4.4941    1.6467 H         1 <0>         0.0997
     45 H15         7.9086    4.9544    3.2719 H         1 <0>         0.0998
     46 H16         5.2141    4.9171    3.2384 H         1 <0>         0.3851
     47 H17         3.0039    4.9166    4.0019 H         1 <0>         0.1213
     48 H18         0.6606    4.8167    4.8404 H         1 <0>         0.1382
     49 H19        -1.2079    3.5735    5.8384 H         1 <0>         0.1372
     50 H20         1.1982    0.0437    6.0061 H         1 <0>         0.1393
     51 H21         3.3899    0.7335    4.0857 H         1 <0>         0.3953
     52 H22        -1.1853    1.0799    7.4896 H         1 <0>         0.3967
@<TRIPOS>BOND
     1    1    6 ar
     2    1    2 ar
     3    1   31 1
     4    2    3 ar
     5    2   32 1
     6    3    4 ar
     7    3    9 1
     8    4    5 ar
     9    4    8 1
    10    5    6 ar
    11    5   33 1
    12    6    7 1
    13    7   34 1
    14    8   35 1
    15    9   10 2
    16    9   36 1
    17   10   11 1
    18   11   12 am
    19   11   37 1
    20   12   13 2
    21   12   14 1
    22   14   15 1
    23   14   38 1
    24   14   39 1
    25   15   16 1
    26   15   40 1
    27   15   41 1
    28   16   17 1
    29   16   42 1
    30   16   43 1
    31   17   18 1
    32   17   44 1
    33   17   45 1
    34   18   19 2
    35   18   20 am
    36   20   21 1
    37   20   46 1
    38   21   22 2
    39   22   23 1
    40   22   47 1
    41   23   28 ar
    42   23   24 ar
    43   24   25 ar
    44   24   48 1
    45   25   26 ar
    46   25   49 1
    47   26   27 ar
    48   26   30 1
    49   27   28 ar
    50   27   50 1
    51   28   29 1
    52   29   51 1
    53   30   52 1
@<TRIPOS>MOLECULE
ZINC06501389
   60    62     0     0     0
SMALL
USER_CHARGES

@<TRIPOS>ATOM
      1 C1         -0.3758    1.1215    1.3443 C.3       1 <0>        -0.1524
      2 C2          0.0552   -0.2416    0.7994 C.3       1 <0>        -0.1236
      3 C3          0.2080   -1.2289    1.9582 C.3       1 <0>        -0.1306
      4 C4          0.6390   -2.5921    1.4134 C.3       1 <0>         0.1299
      5 H1         -0.0700   -2.9203    0.6534 H         1 <0>         0.1316
      6 C5          0.6707   -3.5952    2.5375 C.2       1 <0>         0.4958
      7 O1          1.5570   -4.4216    2.5881 O.2       1 <0>        -0.4988
      8 N1         -0.2859   -3.5740    3.4867 N.am      1 <0>        -0.7250
      9 C6         -0.2551   -4.5492    4.5796 C.3       1 <0>         0.1444
     10 C7         -1.0020   -5.8332    4.1633 C.3       1 <0>        -0.1345
     11 C8         -1.7196   -6.2916    5.4571 C.3       1 <0>        -0.1253
     12 C9         -2.1652   -4.9518    6.0939 C.3       1 <0>        -0.1248
     13 C10        -0.9946   -3.9888    5.8071 C.3       1 <0>        -0.1306
     14 N2          1.9740   -2.4810    0.8203 N.am      1 <0>        -0.5835
     15 C11         3.0803   -1.9271    1.6048 C.3       1 <0>         0.1588
     16 C12         3.6248   -2.9892    2.5248 C.ar      1 <0>        -0.0787
     17 C13         3.3483   -2.9393    3.8783 C.ar      1 <0>        -0.0818
     18 C14         3.8477   -3.9134    4.7223 C.ar      1 <0>        -0.1099
     19 C15         4.6240   -4.9381    4.2135 C.ar      1 <0>        -0.0983
     20 C16         4.9010   -4.9890    2.8605 C.ar      1 <0>        -0.1070
     21 C17         4.3967   -4.0173    2.0143 C.ar      1 <0>        -0.0161
     22 Cl1         4.7389   -4.0843    0.3136 Cl        1 <0>        -0.0537
     23 C18         2.1843   -2.8884   -0.4471 C.2       1 <0>         0.6358
     24 O2          1.3137   -3.4943   -1.0440 O.2       1 <0>        -0.5301
     25 C19         3.4603   -2.6021   -1.1060 C.2       1 <0>        -0.3582
     26 C20         3.9333   -3.0381   -2.3443 C.2       1 <0>         0.2607
     27 C21         5.2062   -2.5614   -2.6512 C.2       1 <0>        -0.0298
     28 N3          5.8294   -1.7792   -1.7951 N.2       1 <0>        -0.4336
     29 S1          4.8203   -1.5977   -0.5441 S.3       1 <0>         0.4158
     30 C22         5.8504   -2.9307   -3.9249 C.2       1 <0>         0.6000
     31 O3          5.2231   -3.5412   -4.7691 O.2       1 <0>        -0.5403
     32 N4          7.1346   -2.5916   -4.1538 N.am      1 <0>        -0.8308
     33 N5          3.2063   -3.8668   -3.1885 N.pl3     1 <0>        -0.8073
     34 H2          0.3790    1.4904    2.0387 H         1 <0>         0.0549
     35 H3         -0.4847    1.8249    0.5187 H         1 <0>         0.0569
     36 H4         -1.3289    1.0204    1.8635 H         1 <0>         0.0553
     37 H5         -0.6996   -0.6105    0.1049 H         1 <0>         0.0671
     38 H6          1.0082   -0.1405    0.2802 H         1 <0>         0.0652
     39 H7          0.9628   -0.8600    2.6527 H         1 <0>         0.0760
     40 H8         -0.7450   -1.3300    2.4775 H         1 <0>         0.0822
     41 H9         -0.9947   -2.9131    3.4463 H         1 <0>         0.3971
     42 H10         0.7767   -4.7846    4.8406 H         1 <0>         0.0918
     43 H11        -1.7288   -5.6150    3.3808 H         1 <0>         0.0688
     44 H12        -0.2964   -6.5935    3.8286 H         1 <0>         0.0691
     45 H13        -2.5833   -6.9129    5.2204 H         1 <0>         0.0682
     46 H14        -1.0300   -6.8211    6.1144 H         1 <0>         0.0685
     47 H15        -3.0799   -4.5913    5.6232 H         1 <0>         0.0667
     48 H16        -2.3084   -5.0689    7.1681 H         1 <0>         0.0681
     49 H17        -0.3220   -3.9530    6.6641 H         1 <0>         0.0738
     50 H18        -1.3765   -2.9913    5.5897 H         1 <0>         0.0702
     51 H19         3.8691   -1.5895    0.9325 H         1 <0>         0.0775
     52 H20         2.7208   -1.0844    2.1952 H         1 <0>         0.1032
     53 H21         2.7423   -2.1389    4.2765 H         1 <0>         0.1213
     54 H22         3.6317   -3.8738    5.7798 H         1 <0>         0.1229
     55 H23         5.0141   -5.6987    4.8735 H         1 <0>         0.1260
     56 H24         5.5077   -5.7894    2.4632 H         1 <0>         0.1265
     57 H25         7.6350   -2.1046   -3.4804 H         1 <0>         0.4115
     58 H26         7.5584   -2.8345   -4.9918 H         1 <0>         0.4094
     59 H27         2.2850   -4.0854   -2.9782 H         1 <0>         0.4158
     60 H28         3.6198   -4.2271   -3.9886 H         1 <0>         0.4175
@<TRIPOS>BOND
     1    1    2 1
     2    1   34 1
     3    1   35 1
     4    1   36 1
     5    2    3 1
     6    2   37 1
     7    2   38 1
     8    3    4 1
     9    3   39 1
    10    3   40 1
    11    4    5 1
    12    4    6 1
    13    4   14 1
    14    6    7 2
    15    6    8 am
    16    8    9 1
    17    8   41 1
    18    9   13 1
    19    9   10 1
    20    9   42 1
    21   10   11 1
    22   10   43 1
    23   10   44 1
    24   11   12 1
    25   11   45 1
    26   11   46 1
    27   12   13 1
    28   12   47 1
    29   12   48 1
    30   13   49 1
    31   13   50 1
    32   14   15 1
    33   14   23 am
    34   15   16 1
    35   15   51 1
    36   15   52 1
    37   16   21 ar
    38   16   17 ar
    39   17   18 ar
    40   17   53 1
    41   18   19 ar
    42   18   54 1
    43   19   20 ar
    44   19   55 1
    45   20   21 ar
    46   20   56 1
    47   21   22 1
    48   23   24 2
    49   23   25 1
    50   25   29 1
    51   25   26 2
    52   26   27 1
    53   26   33 1
    54   27   28 2
    55   27   30 1
    56   28   29 1
    57   30   31 2
    58   30   32 am
    59   32   57 1
    60   32   58 1
    61   33   59 1
    62   33   60 1
@<TRIPOS>MOLECULE
ZINC39001061
   59    63     0     0     0
SMALL
USER_CHARGES

@<TRIPOS>ATOM
      1 C1         -0.5323   -0.7350   -1.3464 C.ar      1 <0>        -0.1159
      2 C2          0.3455    0.3168   -1.5377 C.ar      1 <0>        -0.1158
      3 C3          1.6806    0.1713   -1.2197 C.ar      1 <0>        -0.1035
      4 C4          2.1438   -1.0382   -0.7049 C.ar      1 <0>        -0.0484
      5 C5          1.2548   -2.0945   -0.5142 C.ar      1 <0>        -0.1116
      6 C6         -0.0781   -1.9377   -0.8358 C.ar      1 <0>        -0.1188
      7 C7          3.5774   -1.2008   -0.3617 C.ar      1 <0>        -0.0729
      8 C8          4.5617   -0.8435   -1.2802 C.ar      1 <0>        -0.0888
      9 C9          5.8945   -0.9966   -0.9563 C.ar      1 <0>        -0.1282
     10 C10         6.2584   -1.5048    0.2787 C.ar      1 <0>        -0.0975
     11 C11         5.2914   -1.8631    1.1978 C.ar      1 <0>        -0.1177
     12 C12         3.9478   -1.7085    0.8886 C.ar      1 <0>         0.1547
     13 N1          2.9682   -2.0645    1.8193 N.am      1 <0>        -0.6645
     14 C13         3.1661   -3.1181    2.6362 C.2       1 <0>         0.5345
     15 O1          4.2264   -3.7067    2.6208 O.2       1 <0>        -0.4914
     16 C14         2.0698   -3.5648    3.5688 C.3       1 <0>        -0.1427
     17 S1          2.6381   -4.9951    4.5289 S.3       1 <0>        -0.1050
     18 C15         1.2226   -5.4038    5.5871 C.3       1 <0>         0.2285
     19 H1          1.4568   -6.2702    6.2057 H         1 <0>         0.1504
     20 N2          0.0302   -5.6819    4.7546 N.3       1 <0>        -0.4724
     21 N3         -1.0919   -5.1136    5.5179 N.3       1 <0>        -0.4827
     22 C16        -0.5114   -3.8724    6.0941 C.3       1 <0>         0.2215
     23 H2         -0.5164   -3.0705    5.3558 H         1 <0>         0.0812
     24 N4          0.8795   -4.2487    6.4425 N.3       1 <0>        -0.3509
     25 N5          0.9901   -4.5922    7.8510 N.3       1 <0>        -0.6890
     26 C17        -1.2838   -3.4509    7.3457 C.3       1 <0>        -0.0311
     27 H3         -1.1805   -4.2001    8.1306 H         1 <0>         0.1779
     28 C18        -2.7477   -3.2156    7.0184 C.2       1 <0>        -0.1347
     29 C19        -2.9393   -1.9153    7.3135 C.2       1 <0>         0.0061
     30 N6         -1.7869   -1.3575    7.7689 N.2       1 <0>        -0.1476
     31 N7         -0.8262   -2.1344    7.8202 N.2       1 <0>        -0.1466
     32 C20        -4.2268   -1.1938    7.1621 C.ar      1 <0>        -0.0451
     33 C21        -5.3528   -1.8652    6.6892 C.ar      1 <0>        -0.0719
     34 C22        -6.5482   -1.1905    6.5504 C.ar      1 <0>        -0.1526
     35 C23        -6.6301    0.1528    6.8799 C.ar      1 <0>         0.1121
     36 C24        -5.5131    0.8244    7.3500 C.ar      1 <0>        -0.1533
     37 C25        -4.3152    0.1559    7.4978 C.ar      1 <0>        -0.0574
     38 F1         -7.8025    0.8098    6.7421 F         1 <0>        -0.1344
     39 H4         -1.5771   -0.6153   -1.5924 H         1 <0>         0.1238
     40 H5         -0.0145    1.2534   -1.9370 H         1 <0>         0.1260
     41 H6          2.3651    0.9931   -1.3698 H         1 <0>         0.1260
     42 H7          1.6083   -3.0341   -0.1160 H         1 <0>         0.1200
     43 H8         -0.7679   -2.7556   -0.6885 H         1 <0>         0.1236
     44 H9          4.2821   -0.4472   -2.2452 H         1 <0>         0.1286
     45 H10         6.6566   -0.7191   -1.6694 H         1 <0>         0.1277
     46 H11         7.3034   -1.6220    0.5247 H         1 <0>         0.1289
     47 H12         5.5817   -2.2597    2.1595 H         1 <0>         0.1424
     48 H13         2.1459   -1.5534    1.8775 H         1 <0>         0.4118
     49 H14         1.8151   -2.7501    4.2467 H         1 <0>         0.1193
     50 H15         1.1901   -3.8430    2.9885 H         1 <0>         0.1060
     51 H16         0.1108   -5.2433    3.8495 H         1 <0>         0.3196
     52 H17        -1.8705   -4.9013    4.9123 H         1 <0>         0.3506
     53 H18         1.9292   -4.8817    8.0799 H         1 <0>         0.3629
     54 H19         0.6961   -3.8236    8.4348 H         1 <0>         0.3647
     55 H20        -3.4674   -3.9252    6.6378 H         1 <0>         0.1784
     56 H21        -5.2896   -2.9121    6.4314 H         1 <0>         0.1353
     57 H22        -7.4212   -1.7100    6.1840 H         1 <0>         0.1424
     58 H23        -5.5813    1.8715    7.6054 H         1 <0>         0.1427
     59 H24        -3.4461    0.6791    7.8685 H         1 <0>         0.1450
@<TRIPOS>BOND
     1    1    6 ar
     2    1    2 ar
     3    1   39 1
     4    2    3 ar
     5    2   40 1
     6    3    4 ar
     7    3   41 1
     8    4    5 ar
     9    4    7 1
    10    5    6 ar
    11    5   42 1
    12    6   43 1
    13    7   12 ar
    14    7    8 ar
    15    8    9 ar
    16    8   44 1
    17    9   10 ar
    18    9   45 1
    19   10   11 ar
    20   10   46 1
    21   11   12 ar
    22   11   47 1
    23   12   13 1
    24   13   14 am
    25   13   48 1
    26   14   15 2
    27   14   16 1
    28   16   17 1
    29   16   49 1
    30   16   50 1
    31   17   18 1
    32   18   19 1
    33   18   24 1
    34   18   20 1
    35   20   21 1
    36   20   51 1
    37   21   22 1
    38   21   52 1
    39   22   23 1
    40   22   24 1
    41   22   26 1
    42   24   25 1
    43   25   53 1
    44   25   54 1
    45   26   27 1
    46   26   31 1
    47   26   28 1
    48   28   29 2
    49   28   55 1
    50   29   30 1
    51   29   32 1
    52   30   31 2
    53   32   37 ar
    54   32   33 ar
    55   33   34 ar
    56   33   56 1
    57   34   35 ar
    58   34   57 1
    59   35   36 ar
    60   35   38 1
    61   36   37 ar
    62   36   58 1
    63   37   59 1
@<TRIPOS>MOLECULE
ZINC40783658
   56    59     0     0     0
SMALL
USER_CHARGES

@<TRIPOS>ATOM
      1 C1         -0.5131    1.4522    0.0823 C.3       1 <0>        -0.1236
      2 C2         -0.2354   -0.0283    0.0365 C.ar      1 <0>        -0.0169
      3 C3         -0.3345   -0.7138   -1.1568 C.ar      1 <0>        -0.1308
      4 C4         -0.0799   -2.0729   -1.2005 C.ar      1 <0>        -0.0839
      5 C5          0.2751   -2.7539   -0.0493 C.ar      1 <0>        -0.1326
      6 C6          0.3773   -2.0806    1.1502 C.ar      1 <0>        -0.0806
      7 C7          0.1283   -0.7079    1.1999 C.ar      1 <0>        -0.1355
      8 C8          0.2429    0.0216    2.4808 C.2       1 <0>         0.5575
      9 O1          0.1362    1.2322    2.5024 O.2       1 <0>        -0.5363
     10 N1          0.4656   -0.6558    3.6245 N.am      1 <0>        -0.5056
     11 N2          0.5743    0.0354    4.8382 N.pl3     1 <0>        -0.5135
     12 C9          0.8040   -0.6631    6.0175 C.ar      1 <0>         0.4015
     13 C10         0.9082    0.0143    7.2338 C.ar      1 <0>         0.0035
     14 C11         1.1389   -0.7356    8.3882 C.ar      1 <0>         0.4161
     15 N3          1.2498   -2.0581    8.2865 N.ar      1 <0>        -0.5639
     16 C12         1.1449   -2.6586    7.1185 C.ar      1 <0>         0.3328
     17 N4          0.9224   -1.9886    6.0057 N.ar      1 <0>        -0.5821
     18 N5          1.2514   -0.1110    9.6247 N.pl3     1 <0>        -0.7073
     19 C13         1.4935   -0.9090   10.8291 C.3       1 <0>         0.2448
     20 C14         2.9727   -1.1544   10.9802 C.ar      1 <0>        -0.0851
     21 C15         3.8730   -0.1430   10.7022 C.ar      1 <0>        -0.1021
     22 C16         5.2298   -0.3680   10.8408 C.ar      1 <0>        -0.1221
     23 C17         5.6863   -1.6044   11.2579 C.ar      1 <0>        -0.1194
     24 C18         4.7859   -2.6155   11.5368 C.ar      1 <0>        -0.1187
     25 C19         3.4289   -2.3892   11.4023 C.ar      1 <0>        -0.0990
     26 C20         0.9818   -0.1652   12.0358 C.ar      1 <0>        -0.0886
     27 C21         1.1585    1.2025   12.1309 C.ar      1 <0>        -0.1133
     28 C22         0.6892    1.8848   13.2377 C.ar      1 <0>        -0.1149
     29 C23         0.0428    1.1994   14.2493 C.ar      1 <0>        -0.1168
     30 C24        -0.1348   -0.1682   14.1538 C.ar      1 <0>        -0.1140
     31 C25         0.3308   -0.8498   13.0449 C.ar      1 <0>        -0.1034
     32 N6          0.7849    1.4122    7.2941 N.pl3     1 <0>        -0.8766
     33 H1          0.4267    2.0004    0.0171 H         1 <0>         0.0770
     34 H2         -1.1534    1.7278   -0.7557 H         1 <0>         0.0603
     35 H3         -1.0136    1.6992    1.0185 H         1 <0>         0.0939
     36 H4         -0.6118   -0.1883   -2.0586 H         1 <0>         0.1319
     37 H5         -0.1589   -2.6048   -2.1371 H         1 <0>         0.1299
     38 H6          0.4722   -3.8150   -0.0901 H         1 <0>         0.1317
     39 H7          0.6542   -2.6133    2.0479 H         1 <0>         0.1278
     40 H8          0.5508   -1.6219    3.6072 H         1 <0>         0.4323
     41 H9          0.4892    1.0015    4.8555 H         1 <0>         0.4369
     42 H10         1.2400   -3.7334    7.0721 H         1 <0>         0.1965
     43 H11         1.1696    0.8534    9.6901 H         1 <0>         0.4028
     44 H12         0.9738   -1.8633   10.7432 H         1 <0>         0.1085
     45 H13         3.5164    0.8230   10.3764 H         1 <0>         0.1120
     46 H14         5.9333    0.4219   10.6229 H         1 <0>         0.1189
     47 H15         6.7464   -1.7805   11.3655 H         1 <0>         0.1200
     48 H16         5.1426   -3.5816   11.8623 H         1 <0>         0.1222
     49 H17         2.7253   -3.1780   11.6238 H         1 <0>         0.1226
     50 H18         1.6636    1.7379   11.3406 H         1 <0>         0.1160
     51 H19         0.8279    2.9532   13.3123 H         1 <0>         0.1238
     52 H20        -0.3233    1.7324   15.1144 H         1 <0>         0.1236
     53 H21        -0.6396   -0.7037   14.9442 H         1 <0>         0.1256
     54 H22         0.1888   -1.9177   12.9686 H         1 <0>         0.1256
     55 H23         0.6251    1.9203    6.4835 H         1 <0>         0.3956
     56 H24         0.8597    1.8694    8.1463 H         1 <0>         0.3948
@<TRIPOS>BOND
     1    1    2 1
     2    1   33 1
     3    1   34 1
     4    1   35 1
     5    2    7 ar
     6    2    3 ar
     7    3    4 ar
     8    3   36 1
     9    4    5 ar
    10    4   37 1
    11    5    6 ar
    12    5   38 1
    13    6    7 ar
    14    6   39 1
    15    7    8 1
    16    8    9 2
    17    8   10 am
    18   10   11 1
    19   10   40 1
    20   11   12 1
    21   11   41 1
    22   12   17 ar
    23   12   13 ar
    24   13   14 ar
    25   13   32 1
    26   14   15 ar
    27   14   18 1
    28   15   16 ar
    29   16   17 ar
    30   16   42 1
    31   18   19 1
    32   18   43 1
    33   19   20 1
    34   19   26 1
    35   19   44 1
    36   20   25 ar
    37   20   21 ar
    38   21   22 ar
    39   21   45 1
    40   22   23 ar
    41   22   46 1
    42   23   24 ar
    43   23   47 1
    44   24   25 ar
    45   24   48 1
    46   25   49 1
    47   26   31 ar
    48   26   27 ar
    49   27   28 ar
    50   27   50 1
    51   28   29 ar
    52   28   51 1
    53   29   30 ar
    54   29   52 1
    55   30   31 ar
    56   30   53 1
    57   31   54 1
    58   32   55 1
    59   32   56 1
@<TRIPOS>MOLECULE
ZINC03765517
   68    72     0     0     0
SMALL
USER_CHARGES
N-[2-(1-ethylindol-3-yl)-1-[2-(5-methoxy-1H-indol-3-yl)ethylcarbamoyl]vinyl]benzamide
@<TRIPOS>ATOM
      1 C1         -3.3093   -0.7445    0.4990 C.3       1 <0>        -0.1714
      2 C2         -3.3167    0.0059   -0.8343 C.3       1 <0>         0.0997
      3 N1         -2.8029    1.3631   -0.6337 N.pl3     1 <0>        -0.4704
      4 C3         -3.5757    2.4669   -0.4577 C.2       1 <0>         0.0910
      5 C4         -2.7797    3.5630   -0.2864 C.2       1 <0>        -0.1689
      6 C5         -1.3868    3.0870   -0.3805 C.ar      1 <0>        -0.0844
      7 C6         -1.4660    1.7015   -0.5959 C.ar      1 <0>         0.0927
      8 C7         -0.2941    0.9628   -0.7212 C.ar      1 <0>        -0.1236
      9 C8          0.9284    1.5942   -0.6436 C.ar      1 <0>        -0.0996
     10 C9          1.0046    2.9637   -0.4364 C.ar      1 <0>        -0.1380
     11 C10        -0.1449    3.7120   -0.3047 C.ar      1 <0>        -0.0746
     12 C11        -3.2221    4.9427   -0.0692 C.2       1 <0>        -0.0086
     13 C12        -4.5036    5.1942    0.3013 C.2       1 <0>         0.0414
     14 C13        -4.9706    6.5756    0.4303 C.2       1 <0>         0.5566
     15 O1         -6.1200    6.8011    0.7625 O.2       1 <0>        -0.5226
     16 N2         -4.1282    7.5977    0.1812 N.am      1 <0>        -0.7277
     17 C14        -4.5955    8.9802    0.3103 C.3       1 <0>         0.1270
     18 C15        -3.4514    9.9388   -0.0259 C.3       1 <0>        -0.0525
     19 C16        -3.9321   11.3609    0.1069 C.2       1 <0>        -0.1778
     20 C17        -4.4014   12.1403   -0.8801 C.2       1 <0>         0.0728
     21 N3         -4.7422   13.3684   -0.3829 N.pl3     1 <0>        -0.5945
     22 H1         -5.1046   14.1005   -0.9060 H         1 <0>         0.4171
     23 C18        -4.4938   13.4101    0.9729 C.ar      1 <0>         0.0646
     24 C19        -3.9817   12.1522    1.3388 C.ar      1 <0>        -0.0595
     25 C20        -3.6283   11.9018    2.6662 C.ar      1 <0>        -0.1112
     26 C21        -3.7962   12.8908    3.6150 C.ar      1 <0>         0.1016
     27 C22        -4.3097   14.1327    3.2509 C.ar      1 <0>        -0.1781
     28 C23        -4.6557   14.3927    1.9435 C.ar      1 <0>        -0.0894
     29 O2         -3.4592   12.6508    4.9104 O.3       1 <0>        -0.3189
     30 C24        -3.6586   13.7168    5.8409 C.3       1 <0>         0.0283
     31 N4         -5.3802    4.1306    0.5603 N.am      1 <0>        -0.6629
     32 C25        -6.5227    4.0120   -0.1447 C.2       1 <0>         0.5602
     33 O3         -6.7526    4.7752   -1.0628 O.2       1 <0>        -0.5027
     34 C26        -7.4963    2.9540    0.1984 C.ar      1 <0>        -0.1351
     35 C27        -7.2915    2.1500    1.3210 C.ar      1 <0>        -0.0898
     36 C28        -8.2065    1.1676    1.6382 C.ar      1 <0>        -0.1255
     37 C29        -9.3201    0.9716    0.8407 C.ar      1 <0>        -0.0921
     38 C30        -9.5262    1.7612   -0.2766 C.ar      1 <0>        -0.1254
     39 C31        -8.6217    2.7506   -0.6021 C.ar      1 <0>        -0.0572
     40 H2         -3.6915   -1.7543    0.3497 H         1 <0>         0.0775
     41 H3         -2.2900   -0.7947    0.8820 H         1 <0>         0.0642
     42 H4         -3.9410   -0.2190    1.2152 H         1 <0>         0.0635
     43 H5         -4.3359    0.0562   -1.2173 H         1 <0>         0.0931
     44 H6         -2.6849   -0.5196   -1.5505 H         1 <0>         0.0895
     45 H7         -4.6556    2.4745   -0.4455 H         1 <0>         0.1731
     46 H8         -0.3422   -0.1039   -0.8834 H         1 <0>         0.1192
     47 H9          1.8357    1.0173   -0.7455 H         1 <0>         0.1265
     48 H10         1.9694    3.4456   -0.3785 H         1 <0>         0.1254
     49 H11        -0.0829    4.7780   -0.1431 H         1 <0>         0.1244
     50 H12        -2.5286    5.7596   -0.2037 H         1 <0>         0.1394
     51 H13        -3.2125    7.4180   -0.0834 H         1 <0>         0.3977
     52 H14        -5.4248    9.1491   -0.3767 H         1 <0>         0.0688
     53 H15        -4.9291    9.1570    1.3329 H         1 <0>         0.0701
     54 H16        -2.6222    9.7699    0.6611 H         1 <0>         0.0780
     55 H17        -3.1179    9.7620   -1.0484 H         1 <0>         0.0775
     56 H18        -4.4962   11.8420   -1.9138 H         1 <0>         0.1721
     57 H19        -3.2302   10.9388    2.9500 H         1 <0>         0.1298
     58 H20        -4.4375   14.8994    4.0007 H         1 <0>         0.1315
     59 H21        -5.0525   15.3598    1.6720 H         1 <0>         0.1237
     60 H22        -3.3504   13.3937    6.8352 H         1 <0>         0.0990
     61 H23        -3.0642   14.5790    5.5386 H         1 <0>         0.0538
     62 H24        -4.7134   13.9910    5.8587 H         1 <0>         0.0539
     63 H25        -5.1642    3.4804    1.2470 H         1 <0>         0.4068
     64 H26        -6.4207    2.2995    1.9421 H         1 <0>         0.1239
     65 H27        -8.0514    0.5476    2.5088 H         1 <0>         0.1299
     66 H28       -10.0315    0.1986    1.0914 H         1 <0>         0.1286
     67 H29       -10.3973    1.6028   -0.8951 H         1 <0>         0.1316
     68 H30        -8.7837    3.3663   -1.4745 H         1 <0>         0.1370
@<TRIPOS>BOND
     1    1    2 1
     2    1   40 1
     3    1   41 1
     4    1   42 1
     5    2    3 1
     6    2   43 1
     7    2   44 1
     8    3    7 1
     9    3    4 1
    10    4    5 2
    11    4   45 1
    12    5    6 1
    13    5   12 1
    14    6   11 ar
    15    6    7 ar
    16    7    8 ar
    17    8    9 ar
    18    8   46 1
    19    9   10 ar
    20    9   47 1
    21   10   11 ar
    22   10   48 1
    23   11   49 1
    24   12   13 2
    25   12   50 1
    26   13   14 1
    27   13   31 1
    28   14   15 2
    29   14   16 am
    30   16   17 1
    31   16   51 1
    32   17   18 1
    33   17   52 1
    34   17   53 1
    35   18   19 1
    36   18   54 1
    37   18   55 1
    38   19   24 1
    39   19   20 2
    40   20   21 1
    41   20   56 1
    42   21   22 1
    43   21   23 1
    44   23   28 ar
    45   23   24 ar
    46   24   25 ar
    47   25   26 ar
    48   25   57 1
    49   26   27 ar
    50   26   29 1
    51   27   28 ar
    52   27   58 1
    53   28   59 1
    54   29   30 1
    55   30   60 1
    56   30   61 1
    57   30   62 1
    58   31   32 am
    59   31   63 1
    60   32   33 2
    61   32   34 1
    62   34   39 ar
    63   34   35 ar
    64   35   36 ar
    65   35   64 1
    66   36   37 ar
    67   36   65 1
    68   37   38 ar
    69   37   66 1
    70   38   39 ar
    71   38   67 1
    72   39   68 1
@<TRIPOS>MOLECULE
ZINC13562148
   65    68     0     0     0
SMALL
USER_CHARGES
7-[(2R)-2-hydroxy-3-(4-methoxyphenoxy)propyl]-3-methyl-8-[(N'E)-N'-[(E)-1-methyl-3-phenyl-prop-2-enylidene]hydrazino]purine-2,6-dione
@<TRIPOS>ATOM
      1 C1          3.6275    6.4227    0.0010 C.3       1 <0>        -0.1555
      2 C2          2.3282    5.6593    0.0093 C.2       1 <0>         0.1320
      3 N1          1.1951    6.3022    0.0231 N.2       1 <0>        -0.2133
      4 N2          1.1845    7.7031    0.0303 N.pl3     1 <0>        -0.5459
      5 C3         -0.0124    8.3821    0.0449 C.2       1 <0>         0.5715
      6 N3         -1.2058    7.8226    0.0537 N.2       1 <0>        -0.4995
      7 C4         -2.1497    8.7641    0.0676 C.2       1 <0>         0.3508
      8 C5         -1.5105    9.9998    0.0676 C.2       1 <0>        -0.1598
      9 N4         -0.1486    9.7355    0.0584 N.pl3     1 <0>        -0.4338
     10 C6          0.9335   10.7231    0.0601 C.3       1 <0>         0.0751
     11 C7          1.2998   11.0808   -1.3817 C.3       1 <0>         0.0976
     12 H1          1.5423   10.1712   -1.9313 H         1 <0>         0.1110
     13 C8          2.5108   12.0158   -1.3833 C.3       1 <0>         0.0307
     14 O1          2.9248   12.2568   -2.7296 O.3       1 <0>        -0.3000
     15 C9          3.9967   13.0741   -2.9090 C.ar      1 <0>         0.0910
     16 C10         4.6318   13.6358   -1.8113 C.ar      1 <0>        -0.1697
     17 C11         5.7234   14.4625   -1.9933 C.ar      1 <0>        -0.1687
     18 C12         6.1784   14.7385   -3.2742 C.ar      1 <0>         0.0934
     19 C13         5.5403   14.1805   -4.3720 C.ar      1 <0>        -0.1099
     20 C14         4.4514   13.3504   -4.1898 C.ar      1 <0>        -0.1072
     21 O2          7.2504   15.5557   -3.4535 O.3       1 <0>        -0.3170
     22 C15         7.8587   16.0952   -2.2784 C.3       1 <0>         0.0270
     23 O3          0.1929   11.7339   -2.0063 O.3       1 <0>        -0.5350
     24 C16        -2.2854   11.1737    0.0815 C.2       1 <0>         0.6065
     25 O4         -1.7471   12.2670    0.0825 O.2       1 <0>        -0.5279
     26 N5         -3.6309   11.0764    0.0940 N.am      1 <0>        -0.6545
     27 H2         -4.1847   11.9090    0.1038 H         1 <0>         0.4461
     28 C17        -4.2385    9.8774    0.0935 C.2       1 <0>         0.7113
     29 O5         -5.4535    9.8283    0.1051 O.2       1 <0>        -0.5350
     30 N6         -3.5352    8.7294    0.0809 N.am      1 <0>        -0.5078
     31 C18        -4.2350    7.4423    0.0808 C.3       1 <0>         0.0881
     32 C19         2.3389    4.2418    0.0020 C.2       1 <0>        -0.1349
     33 C20         1.1758    3.5585    0.0095 C.2       1 <0>        -0.0352
     34 C21         1.1870    2.0866    0.0019 C.ar      1 <0>        -0.0744
     35 C22        -0.0166    1.3747    0.0096 C.ar      1 <0>        -0.0959
     36 C23         0.0021   -0.0041    0.0020 C.ar      1 <0>        -0.1221
     37 C24         1.2078   -0.6833   -0.0136 C.ar      1 <0>        -0.1104
     38 C25         2.4032    0.0142   -0.0208 C.ar      1 <0>        -0.1226
     39 C26         2.4011    1.3930   -0.0125 C.ar      1 <0>        -0.1043
     40 H3          3.9312    6.6120   -1.0286 H         1 <0>         0.0888
     41 H4          3.4948    7.3715    0.5208 H         1 <0>         0.0625
     42 H5          4.3964    5.8368    0.5047 H         1 <0>         0.0918
     43 H6          2.0209    8.1945    0.0249 H         1 <0>         0.3978
     44 H7          0.6057   11.6204    0.5850 H         1 <0>         0.1207
     45 H8          1.8055   10.3057    0.5637 H         1 <0>         0.1011
     46 H9          2.2410   12.9606   -0.9114 H         1 <0>         0.0728
     47 H10         3.3277   11.5533   -0.8293 H         1 <0>         0.0721
     48 H11         4.2750   13.4241   -0.8142 H         1 <0>         0.1286
     49 H12         6.2203   14.8969   -1.1385 H         1 <0>         0.1315
     50 H13         5.8946   14.3955   -5.3694 H         1 <0>         0.1402
     51 H14         3.9543   12.9163   -5.0447 H         1 <0>         0.1399
     52 H15         8.2136   15.2810   -1.6465 H         1 <0>         0.0546
     53 H16         8.6997   16.7278   -2.5623 H         1 <0>         0.1016
     54 H17         7.1269   16.6882   -1.7300 H         1 <0>         0.0549
     55 H18        -0.0783   12.5528   -1.5693 H         1 <0>         0.3844
     56 H19        -4.3985    7.1176    1.1083 H         1 <0>         0.0738
     57 H20        -5.1954    7.5510   -0.4232 H         1 <0>         0.0939
     58 H21        -3.6317    6.7008   -0.4430 H         1 <0>         0.0931
     59 H22         3.2782    3.7089   -0.0095 H         1 <0>         0.1378
     60 H23         0.2365    4.0914    0.0209 H         1 <0>         0.1381
     61 H24        -0.9584    1.9034    0.0169 H         1 <0>         0.1280
     62 H25        -0.9266   -0.5554    0.0079 H         1 <0>         0.1256
     63 H26         1.2160   -1.7632   -0.0198 H         1 <0>         0.1235
     64 H27         3.3401   -0.5229   -0.0326 H         1 <0>         0.1248
     65 H28         3.3348    1.9359   -0.0178 H         1 <0>         0.1268
@<TRIPOS>BOND
     1    1    2 1
     2    1   40 1
     3    1   41 1
     4    1   42 1
     5    2    3 2
     6    2   32 1
     7    3    4 1
     8    4    5 1
     9    4   43 1
    10    5    9 1
    11    5    6 2
    12    6    7 1
    13    7   30 1
    14    7    8 2
    15    8    9 1
    16    8   24 1
    17    9   10 1
    18   10   11 1
    19   10   44 1
    20   10   45 1
    21   11   12 1
    22   11   13 1
    23   11   23 1
    24   13   14 1
    25   13   46 1
    26   13   47 1
    27   14   15 1
    28   15   20 ar
    29   15   16 ar
    30   16   17 ar
    31   16   48 1
    32   17   18 ar
    33   17   49 1
    34   18   19 ar
    35   18   21 1
    36   19   20 ar
    37   19   50 1
    38   20   51 1
    39   21   22 1
    40   22   52 1
    41   22   53 1
    42   22   54 1
    43   23   55 1
    44   24   25 2
    45   24   26 am
    46   26   27 1
    47   26   28 am
    48   28   29 2
    49   28   30 am
    50   30   31 1
    51   31   56 1
    52   31   57 1
    53   31   58 1
    54   32   33 2
    55   32   59 1
    56   33   34 1
    57   33   60 1
    58   34   39 ar
    59   34   35 ar
    60   35   36 ar
    61   35   61 1
    62   36   37 ar
    63   36   62 1
    64   37   38 ar
    65   37   63 1
    66   38   39 ar
    67   38   64 1
    68   39   65 1
@<TRIPOS>MOLECULE
ZINC20909630
   61    63     0     0     0
SMALL
USER_CHARGES
N-(2-allylsulfanylphenyl)-2-[[5-[(N'E)-N'-[(3,4,5-trimethoxyphenyl)methylene]hydrazino]-4H-1,2,4-triazol-3-yl]sulfanyl]acetamide
@<TRIPOS>ATOM
      1 C1        -18.0514    2.6843   -1.1595 C.3       1 <0>         0.0188
      2 O1        -17.4318    3.9707   -1.1015 O.3       1 <0>        -0.2992
      3 C2        -16.0762    3.9990   -0.9966 C.ar      1 <0>         0.1490
      4 C3        -15.3619    2.8151   -0.9509 C.ar      1 <0>        -0.2030
      5 C4        -13.9692    2.8450   -0.8432 C.ar      1 <0>         0.0191
      6 C5        -13.3028    4.0712   -0.7762 C.ar      1 <0>        -0.1971
      7 C6        -14.0225    5.2516   -0.8277 C.ar      1 <0>         0.1466
      8 C7        -15.4092    5.2184   -0.9350 C.ar      1 <0>         0.0462
      9 O2        -16.1147    6.3810   -0.9793 O.3       1 <0>        -0.3124
     10 C8        -16.5485    6.9245    0.2691 C.3       1 <0>         0.0327
     11 O3        -13.3742    6.4456   -0.7677 O.3       1 <0>        -0.2993
     12 C9        -11.9499    6.4057   -0.6582 C.3       1 <0>         0.0195
     13 C10       -13.2049    1.5854   -0.7943 C.2       1 <0>         0.1193
     14 N1        -11.9105    1.6148   -0.6942 N.2       1 <0>        -0.2426
     15 N2        -11.1841    0.4177   -0.6477 N.pl3     1 <0>        -0.5563
     16 C11        -9.8013    0.4490   -0.5407 C.2       1 <0>         0.5401
     17 N3         -8.9746   -0.6386   -0.4857 N.2       1 <0>        -0.5488
     18 C12        -7.6894   -0.1873   -0.3829 C.2       1 <0>         0.2103
     19 N4         -7.7200    1.1239   -0.3698 N.2       1 <0>        -0.3264
     20 N5         -9.0577    1.5268   -0.4748 N.pl3     1 <0>        -0.4754
     21 S1         -6.2447   -1.1906   -0.2785 S.3       1 <0>         0.1183
     22 C13        -4.8864    0.0063   -0.1645 C.3       1 <0>        -0.1651
     23 C14        -3.5749   -0.7298   -0.0685 C.2       1 <0>         0.5407
     24 O4         -3.5582   -1.9426   -0.0762 O.2       1 <0>        -0.5012
     25 N6         -2.4206   -0.0404    0.0259 N.am      1 <0>        -0.6728
     26 C15        -1.1949   -0.7192   -0.0015 C.ar      1 <0>         0.1753
     27 C16        -1.0998   -1.9581   -0.6167 C.ar      1 <0>        -0.1164
     28 C17         0.1104   -2.6261   -0.6427 C.ar      1 <0>        -0.0994
     29 C18         1.2290   -2.0626   -0.0563 C.ar      1 <0>        -0.1187
     30 C19         1.1450   -0.8263    0.5554 C.ar      1 <0>        -0.1130
     31 C20        -0.0668   -0.1506    0.5905 C.ar      1 <0>        -0.1172
     32 S2         -0.1785    1.4237    1.3740 S.3       1 <0>        -0.1224
     33 C21         1.5034    1.7332    1.9788 C.3       1 <0>        -0.0723
     34 C22         1.5479    3.0668    2.6793 C.2       1 <0>        -0.1555
     35 C23         1.7985    3.1239    3.9638 C.2       1 <0>        -0.1599
     36 H1        -19.1415    2.8058   -1.2427 H         1 <0>         0.1070
     37 H2        -17.8140    2.1214   -0.2448 H         1 <0>         0.0598
     38 H3        -17.6757    2.1355   -2.0357 H         1 <0>         0.0611
     39 H4        -15.8802    1.8688   -0.9988 H         1 <0>         0.1434
     40 H5        -12.2267    4.0975   -0.6884 H         1 <0>         0.1432
     41 H6        -17.1029    7.8575    0.0899 H         1 <0>         0.0963
     42 H7        -15.6733    7.1337    0.9018 H         1 <0>         0.0463
     43 H8        -17.2031    6.2006    0.7765 H         1 <0>         0.0467
     44 H9        -11.5563    7.4321   -0.6192 H         1 <0>         0.1071
     45 H10       -11.5295    5.8846   -1.5310 H         1 <0>         0.0600
     46 H11       -11.6676    5.8696    0.2599 H         1 <0>         0.0588
     47 H12       -13.7310    0.6206   -0.8426 H         1 <0>         0.1362
     48 H13       -11.7102   -0.5471   -0.6960 H         1 <0>         0.4404
     49 H14        -4.8839    0.6445   -1.0604 H         1 <0>         0.1285
     50 H15        -5.0225    0.6312    0.7305 H         1 <0>         0.1278
     51 H16        -2.4407    1.0550    0.1244 H         1 <0>         0.4389
     52 H17        -1.9710   -2.4012   -1.0760 H         1 <0>         0.1517
     53 H18         0.1825   -3.5909   -1.1227 H         1 <0>         0.1303
     54 H19         2.1719   -2.5887   -0.0798 H         1 <0>         0.1274
     55 H20         2.0214   -0.3873    1.0088 H         1 <0>         0.1257
     56 H21         1.7916    0.9391    2.6834 H         1 <0>         0.0935
     57 H22         2.2027    1.7415    1.1297 H         1 <0>         0.0984
     58 H23         1.3699    3.9923    2.1120 H         1 <0>         0.1232
     59 H24         1.8310    4.0973    4.4751 H         1 <0>         0.1108
     60 H25         1.9765    2.1984    4.5311 H         1 <0>         0.1032
     61 H26        -9.5266    2.5213   -0.5067 H         1 <0>         0.4728
@<TRIPOS>BOND
     1    1    2 1
     2    1   36 1
     3    1   37 1
     4    1   38 1
     5    2    3 1
     6    3    8 ar
     7    3    4 ar
     8    4    5 ar
     9    4   39 1
    10    5    6 ar
    11    5   13 1
    12    6    7 ar
    13    6   40 1
    14    7    8 ar
    15    7   11 1
    16    8    9 1
    17    9   10 1
    18   10   41 1
    19   10   42 1
    20   10   43 1
    21   11   12 1
    22   12   44 1
    23   12   45 1
    24   12   46 1
    25   13   14 2
    26   13   47 1
    27   14   15 1
    28   15   16 1
    29   15   48 1
    30   16   20 1
    31   16   17 2
    32   17   18 1
    33   18   19 2
    34   18   21 1
    35   19   20 1
    36   20   61 1
    37   21   22 1
    38   22   23 1
    39   22   49 1
    40   22   50 1
    41   23   24 2
    42   23   25 am
    43   25   26 1
    44   25   51 1
    45   26   31 ar
    46   26   27 ar
    47   27   28 ar
    48   27   52 1
    49   28   29 ar
    50   28   53 1
    51   29   30 ar
    52   29   54 1
    53   30   31 ar
    54   30   55 1
    55   31   32 1
    56   32   33 1
    57   33   34 1
    58   33   56 1
    59   33   57 1
    60   34   35 2
    61   34   58 1
    62   35   59 1
    63   35   60 1
@<TRIPOS>MOLECULE
ZINC13468652
   53    54     0     0     0
SMALL
USER_CHARGES

@<TRIPOS>ATOM
      1 C1          2.6867    0.4552    1.3334 C.3       1 <0>        -0.1524
      2 C2          1.7115   -0.6194    0.8487 C.3       1 <0>         0.0624
      3 O1          2.1069   -1.0717   -0.4478 O.3       1 <0>        -0.3460
      4 C3          1.3500   -2.0217   -1.0189 C.2       1 <0>         0.4705
      5 O2          0.3836   -2.4550   -0.4373 O.2       1 <0>        -0.4673
      6 C4          1.7054   -2.5480   -2.3856 C.3       1 <0>        -0.1086
      7 H1          2.7432   -2.3029   -2.6113 H         1 <0>         0.1462
      8 C5          1.5218   -4.0679   -2.4118 C.3       1 <0>        -0.0022
      9 C6          1.8269   -4.5868   -3.8197 C.3       1 <0>        -0.1045
     10 H2          1.6566   -5.6628   -3.8558 H         1 <0>         0.1469
     11 C7          0.9075   -3.8900   -4.8253 C.3       1 <0>         0.2873
     12 N1          1.1216   -2.4386   -4.7621 N.3       1 <0>        -0.6993
     13 C8          0.7902   -1.9095   -3.4329 C.3       1 <0>         0.2877
     14 C9          0.9860   -0.3921   -3.4239 C.3       1 <0>         0.4349
     15 F1          2.3428   -0.0960   -3.5930 F         1 <0>        -0.1647
     16 F2          0.2503    0.1792   -4.4677 F         1 <0>        -0.1636
     17 F3          0.5439    0.1279   -2.2026 F         1 <0>        -0.1621
     18 O3         -0.5714   -2.2155   -3.1254 O.3       1 <0>        -0.4936
     19 C10         1.2226   -4.3908   -6.2363 C.3       1 <0>         0.4348
     20 F4          1.1319   -5.7865   -6.2668 F         1 <0>        -0.1596
     21 F5          0.3061   -3.8439   -7.1407 F         1 <0>        -0.1607
     22 F6          2.5181   -3.9998   -6.5914 F         1 <0>        -0.1719
     23 O4         -0.4545   -4.1846   -4.5088 O.3       1 <0>        -0.4940
     24 C11         3.2644   -4.2931   -4.1636 C.2       1 <0>         0.4722
     25 O5          3.6462   -3.1492   -4.2381 O.2       1 <0>        -0.4978
     26 O6          4.1207   -5.3023   -4.3871 O.3       1 <0>        -0.3278
     27 C12         5.4681   -4.9509   -4.7082 C.3       1 <0>         0.0574
     28 C13         6.2888   -6.2234   -4.9272 C.3       1 <0>        -0.1538
     29 C14         2.4646   -4.7062   -1.4245 C.ar      1 <0>        -0.0937
     30 C15         3.7763   -4.2764   -1.3442 C.ar      1 <0>        -0.1197
     31 C16         4.6416   -4.8613   -0.4389 C.ar      1 <0>        -0.0968
     32 C17         4.1961   -5.8768    0.3864 C.ar      1 <0>        -0.0995
     33 C18         2.8839   -6.3073    0.3066 C.ar      1 <0>        -0.0304
     34 C19         2.0165   -5.7171   -0.5957 C.ar      1 <0>        -0.0817
     35 Cl1         2.3238   -7.5825    1.3428 Cl        1 <0>        -0.0589
     36 H3          3.6919    0.0368    1.3855 H         1 <0>         0.0670
     37 H4          2.6780    1.2942    0.6377 H         1 <0>         0.0679
     38 H5          2.3851    0.8002    2.3224 H         1 <0>         0.0818
     39 H6          1.7202   -1.4584    1.5445 H         1 <0>         0.0686
     40 H7          0.7063   -0.2010    0.7966 H         1 <0>         0.0705
     41 H8          0.4937   -4.3152   -2.1473 H         1 <0>         0.1452
     42 H9          2.0678   -2.2010   -5.0196 H         1 <0>         0.3957
     43 H10        -1.2090   -1.8420   -3.7491 H         1 <0>         0.3946
     44 H11        -1.0947   -3.7747   -5.1065 H         1 <0>         0.4014
     45 H12         5.4800   -4.3499   -5.6175 H         1 <0>         0.0753
     46 H13         5.8993   -4.3771   -3.8878 H         1 <0>         0.0735
     47 H14         6.2769   -6.8244   -4.0180 H         1 <0>         0.0690
     48 H15         5.8576   -6.7971   -5.7476 H         1 <0>         0.0693
     49 H16         7.3165   -5.9553   -5.1722 H         1 <0>         0.0843
     50 H17         4.1249   -3.4835   -1.9893 H         1 <0>         0.1290
     51 H18         5.6660   -4.5251   -0.3767 H         1 <0>         0.1373
     52 H19         4.8725   -6.3343    1.0933 H         1 <0>         0.1387
     53 H20         0.9907   -6.0497   -0.6554 H         1 <0>         0.1412
@<TRIPOS>BOND
     1    1    2 1
     2    1   36 1
     3    1   37 1
     4    1   38 1
     5    2    3 1
     6    2   39 1
     7    2   40 1
     8    3    4 1
     9    4    5 2
    10    4    6 1
    11    6    7 1
    12    6   13 1
    13    6    8 1
    14    8    9 1
    15    8   29 1
    16    8   41 1
    17    9   10 1
    18    9   11 1
    19    9   24 1
    20   11   12 1
    21   11   19 1
    22   11   23 1
    23   12   13 1
    24   12   42 1
    25   13   14 1
    26   13   18 1
    27   14   15 1
    28   14   16 1
    29   14   17 1
    30   18   43 1
    31   19   20 1
    32   19   21 1
    33   19   22 1
    34   23   44 1
    35   24   25 2
    36   24   26 1
    37   26   27 1
    38   27   28 1
    39   27   45 1
    40   27   46 1
    41   28   47 1
    42   28   48 1
    43   28   49 1
    44   29   34 ar
    45   29   30 ar
    46   30   31 ar
    47   30   50 1
    48   31   32 ar
    49   31   51 1
    50   32   33 ar
    51   32   52 1
    52   33   34 ar
    53   33   35 1
    54   34   53 1
@<TRIPOS>MOLECULE
ZINC01739860
   78    82     0     0     0
SMALL
USER_CHARGES

@<TRIPOS>ATOM
      1 C1         -0.2607    1.1183   -0.3032 C.3       1 <0>        -0.1607
      2 C2         -0.3608   -0.4036   -0.2430 C.3       1 <0>        -0.0168
      3 C3          0.1253   -0.9182   -1.6031 C.3       1 <0>        -0.1104
      4 C4          1.6024   -0.6265   -1.8237 C.3       1 <0>        -0.1667
      5 C5          2.3956   -1.2336   -0.6880 C.2       1 <0>         0.3868
      6 O1          3.5116   -1.6866   -0.8813 O.2       1 <0>        -0.4636
      7 C6          1.7965   -1.2683    0.6442 C.2       1 <0>        -0.2422
      8 C7          0.5366   -0.8820    0.8585 C.2       1 <0>        -0.0080
      9 C8          0.0207   -0.9482    2.2825 C.3       1 <0>        -0.1056
     10 C9         -1.3226   -1.6751    2.2907 C.3       1 <0>        -0.1062
     11 C10        -2.3125   -0.9974    1.3487 C.3       1 <0>        -0.0649
     12 H1         -3.1466   -1.7596    1.2672 H         1 <0>         0.0681
     13 C11        -1.7958   -0.8623   -0.0554 C.3       1 <0>        -0.0551
     14 H2         -1.7970   -1.9281   -0.4568 H         1 <0>         0.0783
     15 C12        -2.7626   -0.1210   -0.9690 C.3       1 <0>         0.1248
     16 H3         -2.2185    0.1875   -1.8818 H         1 <0>         0.0575
     17 C13        -3.3873    1.1120   -0.3487 C.3       1 <0>        -0.1508
     18 C14        -3.9846    0.8927    1.0318 C.3       1 <0>        -0.0144
     19 C15        -2.9878    0.1884    1.9675 C.3       1 <0>        -0.0603
     20 H4         -3.5839   -0.1912    2.8251 H         1 <0>         0.0771
     21 C16        -2.0577    1.2705    2.5172 C.3       1 <0>        -0.1237
     22 C17        -2.7377    2.6252    2.2180 C.3       1 <0>        -0.1448
     23 C18        -4.1529    2.2790    1.7162 C.3       1 <0>         0.0945
     24 C19        -4.6566    3.3204    0.7640 C.2       1 <0>         0.3395
     25 O2         -3.8749    4.0127    0.1575 O.2       1 <0>        -0.4096
     26 C20        -6.1389    3.5038    0.5631 C.3       1 <0>         0.0150
     27 O3         -6.3653    4.5484   -0.3854 O.3       1 <0>        -0.3355
     28 C21        -7.6426    4.8392   -0.6783 C.2       1 <0>         0.4640
     29 O4         -8.5387    4.2271   -0.1470 O.2       1 <0>        -0.5036
     30 C22        -7.9590    5.9290   -1.6698 C.3       1 <0>        -0.0978
     31 C23        -9.4762    6.0564   -1.8209 C.3       1 <0>        -0.1306
     32 C24        -9.7925    7.1463   -2.8124 C.2       1 <0>         0.5178
     33 O5         -8.8931    7.7606   -3.3457 O.2       1 <0>        -0.5352
     34 N1        -11.0750    7.4382   -3.1065 N.am      1 <0>        -0.7275
     35 C25       -11.3826    8.4977   -4.0704 C.3       1 <0>         0.2071
     36 C26       -12.8770    8.6232   -4.2192 C.2       1 <0>        -0.1784
     37 C27       -13.7413    9.4038   -3.5258 C.2       1 <0>        -0.1296
     38 C28       -15.0869    9.3556   -3.8383 C.2       1 <0>        -0.1642
     39 C29       -15.5023    8.5290   -4.8290 C.2       1 <0>        -0.1610
     40 S1        -13.9673    7.7880   -5.3598 S.3       1 <0>         0.0527
     41 O6         -5.0429    2.1611    2.8313 O.3       1 <0>        -0.5345
     42 C30        -5.3267    0.1530    0.9704 C.3       1 <0>        -0.1396
     43 O7         -3.7900   -1.0235   -1.4033 O.3       1 <0>        -0.5666
     44 H5          0.7874    1.4113   -0.3656 H         1 <0>         0.0621
     45 H6         -0.7928    1.4829   -1.1819 H         1 <0>         0.0667
     46 H7         -0.7051    1.5475    0.5947 H         1 <0>         0.0741
     47 H8         -0.0387   -1.9928   -1.6403 H         1 <0>         0.0712
     48 H9         -0.4601   -0.4334   -2.3829 H         1 <0>         0.0807
     49 H10         1.9226   -1.0881   -2.7687 H         1 <0>         0.0937
     50 H11         1.7893    0.4418   -1.8930 H         1 <0>         0.1043
     51 H12         2.3856   -1.6147    1.4861 H         1 <0>         0.1324
     52 H13         0.7353   -1.5161    2.8915 H         1 <0>         0.0755
     53 H14        -0.0729    0.0441    2.7077 H         1 <0>         0.0939
     54 H15        -1.1742   -2.7128    1.9757 H         1 <0>         0.0681
     55 H16        -1.7271   -1.6792    3.3068 H         1 <0>         0.0743
     56 H17        -2.6635    1.9267   -0.3185 H         1 <0>         0.0890
     57 H18        -4.1960    1.4357   -1.0303 H         1 <0>         0.0589
     58 H19        -1.9437    1.1513    3.6043 H         1 <0>         0.0688
     59 H20        -1.0727    1.2366    2.0620 H         1 <0>         0.0842
     60 H21        -2.7964    3.2240    3.1244 H         1 <0>         0.0772
     61 H22        -2.1869    3.1600    1.4480 H         1 <0>         0.0880
     62 H23        -6.5728    2.5755    0.1917 H         1 <0>         0.1073
     63 H24        -6.6042    3.7681    1.5127 H         1 <0>         0.1057
     64 H25        -7.5487    6.8741   -1.3141 H         1 <0>         0.1179
     65 H26        -7.5173    5.6815   -2.6351 H         1 <0>         0.1179
     66 H27        -9.8865    5.1113   -2.1766 H         1 <0>         0.1068
     67 H28        -9.9179    6.3039   -0.8556 H         1 <0>         0.1067
     68 H29       -11.7944    6.9468   -2.6800 H         1 <0>         0.4058
     69 H30       -10.9723    9.4428   -3.7147 H         1 <0>         0.0929
     70 H31       -10.9408    8.2502   -5.0357 H         1 <0>         0.0855
     71 H32       -13.3840   10.0535   -2.7405 H         1 <0>         0.1358
     72 H33       -15.7966    9.9670   -3.3010 H         1 <0>         0.1371
     73 H34       -16.5021    8.3645   -5.2030 H         1 <0>         0.1884
     74 H35        -5.1926    2.9910    3.3045 H         1 <0>         0.3798
     75 H36        -5.1811   -0.8269    0.5157 H         1 <0>         0.0756
     76 H37        -5.7206    0.0304    1.9793 H         1 <0>         0.0717
     77 H38        -6.0324    0.7297    0.3724 H         1 <0>         0.0494
     78 H39        -4.4446   -0.6211   -1.9903 H         1 <0>         0.3776
@<TRIPOS>BOND
     1    1    2 1
     2    1   44 1
     3    1   45 1
     4    1   46 1
     5    2    8 1
     6    2   13 1
     7    2    3 1
     8    3    4 1
     9    3   47 1
    10    3   48 1
    11    4    5 1
    12    4   49 1
    13    4   50 1
    14    5    6 2
    15    5    7 1
    16    7    8 2
    17    7   51 1
    18    8    9 1
    19    9   10 1
    20    9   52 1
    21    9   53 1
    22   10   11 1
    23   10   54 1
    24   10   55 1
    25   11   12 1
    26   11   19 1
    27   11   13 1
    28   13   14 1
    29   13   15 1
    30   15   16 1
    31   15   17 1
    32   15   43 1
    33   17   18 1
    34   17   56 1
    35   17   57 1
    36   18   23 1
    37   18   19 1
    38   18   42 1
    39   19   20 1
    40   19   21 1
    41   21   22 1
    42   21   58 1
    43   21   59 1
    44   22   23 1
    45   22   60 1
    46   22   61 1
    47   23   24 1
    48   23   41 1
    49   24   25 2
    50   24   26 1
    51   26   27 1
    52   26   62 1
    53   26   63 1
    54   27   28 1
    55   28   29 2
    56   28   30 1
    57   30   31 1
    58   30   64 1
    59   30   65 1
    60   31   32 1
    61   31   66 1
    62   31   67 1
    63   32   33 2
    64   32   34 am
    65   34   35 1
    66   34   68 1
    67   35   36 1
    68   35   69 1
    69   35   70 1
    70   36   40 1
    71   36   37 2
    72   37   38 1
    73   37   71 1
    74   38   39 2
    75   38   72 1
    76   39   40 1
    77   39   73 1
    78   41   74 1
    79   42   75 1
    80   42   76 1
    81   42   77 1
    82   43   78 1
@<TRIPOS>MOLECULE
ZINC05345891
   59    62     0     0     0
SMALL
USER_CHARGES
3-(butyl-dimethyl-trioxo-BLAHyl)propanamide
@<TRIPOS>ATOM
      1 C1         -7.3333    4.7782    4.7747 C.3       1 <0>        -0.1544
      2 C2         -7.1083    4.2724    3.3483 C.3       1 <0>        -0.1214
      3 C3         -5.6067    4.1508    3.0812 C.3       1 <0>        -0.1354
      4 C4         -5.3817    3.6450    1.6549 C.3       1 <0>         0.0954
      5 N1         -3.9439    3.5286    1.3992 N.am      1 <0>        -0.5649
      6 C5         -3.2143    4.5325    0.8991 C.2       1 <0>         0.5134
      7 O1         -3.6404    5.6279    0.6020 O.2       1 <0>        -0.4246
      8 C6         -1.7761    4.0881    0.7622 C.3       1 <0>        -0.1334
      9 H1         -1.0873    4.7169    1.3265 H         1 <0>         0.1852
     10 C7         -1.4137    3.9848   -0.7342 C.3       1 <0>         0.0419
     11 H2         -0.3409    4.1173   -0.8746 H         1 <0>         0.1724
     12 C8         -1.4673    1.7782    0.0317 C.3       1 <0>         0.0945
     13 C9         -1.8037    2.6193    1.2695 C.3       1 <0>        -0.1189
     14 H3         -1.1226    2.4346    2.1002 H         1 <0>         0.1826
     15 C10        -3.2534    2.4096    1.6462 C.2       1 <0>         0.5122
     16 O2         -3.7178    1.3862    2.1007 O.2       1 <0>        -0.4164
     17 C11        -0.0168    1.3875    0.0097 C.ar      1 <0>        -0.2067
     18 C12         1.1585    2.1049    0.0023 C.ar      1 <0>        -0.0439
     19 C13         2.3737    1.4436   -0.0111 C.ar      1 <0>        -0.1234
     20 C14         2.4044    0.0609   -0.0173 C.ar      1 <0>        -0.0078
     21 C15         1.2298   -0.6620   -0.0112 C.ar      1 <0>        -0.0888
     22 C16         0.0021   -0.0041    0.0020 C.ar      1 <0>         0.1744
     23 N2         -1.3016   -0.5047    0.0086 N.am      1 <0>        -0.6382
     24 C17        -2.2231    0.4778    0.0216 C.2       1 <0>         0.5260
     25 O3         -3.4281    0.3405    0.0286 O.2       1 <0>        -0.4247
     26 C18         1.2747   -2.1683   -0.0183 C.3       1 <0>        -0.1307
     27 C19         3.7280   -0.6595   -0.0313 C.3       1 <0>        -0.1357
     28 C20        -2.1881    5.0277   -1.5426 C.3       1 <0>        -0.1302
     29 C21        -1.7230    4.9918   -2.9998 C.3       1 <0>        -0.1574
     30 C22        -2.4857    6.0190   -3.7960 C.2       1 <0>         0.5133
     31 O4         -3.3192    6.7117   -3.2517 O.2       1 <0>        -0.5263
     32 N3         -2.2416    6.1680   -5.1131 N.am      1 <0>        -0.8512
     33 H4         -6.8940    4.0756    5.4828 H         1 <0>         0.0554
     34 H5         -6.8631    5.7545    4.8924 H         1 <0>         0.0560
     35 H6         -8.4031    4.8648    4.9649 H         1 <0>         0.0616
     36 H7         -7.5476    4.9750    2.6402 H         1 <0>         0.0684
     37 H8         -7.5785    3.2961    3.2306 H         1 <0>         0.0677
     38 H9         -5.1675    3.4482    3.7894 H         1 <0>         0.0699
     39 H10        -5.1365    5.1271    3.1990 H         1 <0>         0.0714
     40 H11        -5.8210    4.3476    0.9467 H         1 <0>         0.1039
     41 H12        -5.8520    2.6687    1.5372 H         1 <0>         0.1035
     42 H13         1.1317    3.1845    0.0071 H         1 <0>         0.1383
     43 H14         3.2959    2.0057   -0.0166 H         1 <0>         0.1484
     44 H15        -1.5184   -1.4502    0.0043 H         1 <0>         0.4366
     45 H16         1.2770   -2.5269   -1.0477 H         1 <0>         0.0841
     46 H17         2.1794   -2.5072    0.4864 H         1 <0>         0.0887
     47 H18         0.4003   -2.5604    0.5010 H         1 <0>         0.0682
     48 H19         4.0389   -0.8284   -1.0623 H         1 <0>         0.0890
     49 H20         4.4767   -0.0539    0.4793 H         1 <0>         0.0822
     50 H21         3.6258   -1.6173    0.4789 H         1 <0>         0.0832
     51 H22        -3.2541    4.8054   -1.4959 H         1 <0>         0.1005
     52 H23        -2.0050    6.0187   -1.1272 H         1 <0>         0.1418
     53 H24        -0.6569    5.2141   -3.0465 H         1 <0>         0.1151
     54 H25        -1.9060    4.0008   -3.4152 H         1 <0>         0.0900
     55 H26        -1.5750    5.6140   -5.5485 H         1 <0>         0.4037
     56 H27        -2.7326    6.8292   -5.6256 H         1 <0>         0.4112
     57 N4         -1.8063    2.6220   -1.1006 N.4       1 <0>        -0.4989
     58 H28        -1.2935    2.3176   -1.9364 H         1 <0>         0.4468
     59 H29        -2.8156    2.5808   -1.2845 H         1 <0>         0.4365
@<TRIPOS>BOND
     1    1    2 1
     2    1   33 1
     3    1   34 1
     4    1   35 1
     5    2    3 1
     6    2   36 1
     7    2   37 1
     8    3    4 1
     9    3   38 1
    10    3   39 1
    11    4    5 1
    12    4   40 1
    13    4   41 1
    14    5   15 am
    15    5    6 am
    16    6    7 2
    17    6    8 1
    18    8    9 1
    19    8   13 1
    20    8   10 1
    21   10   11 1
    22   10   28 1
    23   10   57 1
    24   12   24 1
    25   12   13 1
    26   12   17 1
    27   12   57 1
    28   13   14 1
    29   13   15 1
    30   15   16 2
    31   17   22 ar
    32   17   18 ar
    33   18   19 ar
    34   18   42 1
    35   19   20 ar
    36   19   43 1
    37   20   21 ar
    38   20   27 1
    39   21   22 ar
    40   21   26 1
    41   22   23 1
    42   23   24 am
    43   23   44 1
    44   24   25 2
    45   26   45 1
    46   26   46 1
    47   26   47 1
    48   27   48 1
    49   27   49 1
    50   27   50 1
    51   28   29 1
    52   28   51 1
    53   28   52 1
    54   29   30 1
    55   29   53 1
    56   29   54 1
    57   30   31 2
    58   30   32 am
    59   32   55 1
    60   32   56 1
    61   57   58 1
    62   57   59 1
@<TRIPOS>MOLECULE
ZINC08790873
   60    65     0     0     0
SMALL
USER_CHARGES
2-(benzo[1,3]dioxol-5-ylmethyl-ethyl-trioxo-BLAHyl)acetamide
@<TRIPOS>ATOM
      1 C1          2.1656    4.3084   -6.6310 C.3       1 <0>        -0.1522
      2 C2          1.1235    3.1894   -6.5781 C.3       1 <0>        -0.0953
      3 C3          1.3584    2.3417   -5.3545 C.ar      1 <0>        -0.0809
      4 C4          2.1109    1.1891   -5.4504 C.ar      1 <0>        -0.0449
      5 C5          2.3324    0.4048   -4.3335 C.ar      1 <0>        -0.1190
      6 C6          1.7969    0.7777   -3.1130 C.ar      1 <0>        -0.0439
      7 C7          1.0456    1.9269   -3.0124 C.ar      1 <0>        -0.1976
      8 C8          0.8157    2.7242   -4.1304 C.ar      1 <0>         0.1699
      9 N1          0.0322    3.8271   -3.7838 N.am      1 <0>        -0.6367
     10 C9         -0.2911    3.8298   -2.4760 C.2       1 <0>         0.5281
     11 O1         -0.9590    4.6602   -1.8970 O.2       1 <0>        -0.4272
     12 C10         0.3374    2.6035   -1.8732 C.3       1 <0>         0.0930
     13 C11        -0.7163    1.6857   -1.2413 C.3       1 <0>        -0.1182
     14 H1         -1.0668    0.9232   -1.9369 H         1 <0>         0.1840
     15 C12        -0.0127    1.0858    0.0080 C.3       1 <0>        -0.1381
     16 H2          0.0021   -0.0041    0.0020 H         1 <0>         0.1873
     17 C13         1.4037    1.6982   -0.0022 C.3       1 <0>         0.0606
     18 H3          2.1064    1.0203   -0.4867 H         1 <0>         0.1781
     19 C14         1.8608    2.0059    1.4251 C.3       1 <0>        -0.1721
     20 C15         3.2887    2.4871    1.4026 C.2       1 <0>         0.5156
     21 O2          3.8824    2.5752    0.3487 O.2       1 <0>        -0.5531
     22 N2          3.9061    2.8195    2.5536 N.am      1 <0>        -0.8322
     23 C16        -0.7934    1.6508    1.1725 C.2       1 <0>         0.5223
     24 O3         -0.5580    1.4386    2.3426 O.2       1 <0>        -0.4321
     25 N3         -1.7938    2.4216    0.6874 N.am      1 <0>        -0.5652
     26 C17        -1.8366    2.5095   -0.6469 C.2       1 <0>         0.5178
     27 O4         -2.6472    3.1503   -1.2809 O.2       1 <0>        -0.4115
     28 C18        -2.7479    3.1132    1.5578 C.3       1 <0>         0.1475
     29 C19        -3.9362    2.2212    1.8096 C.ar      1 <0>        -0.1260
     30 C20        -5.0296    2.2742    0.9651 C.ar      1 <0>        -0.0812
     31 C21        -6.1201    1.4547    1.1892 C.ar      1 <0>        -0.1031
     32 C22        -6.1237    0.5848    2.2675 C.ar      1 <0>         0.0533
     33 C23        -5.0245    0.5352    3.1212 C.ar      1 <0>         0.0314
     34 C24        -3.9330    1.3559    2.8876 C.ar      1 <0>        -0.0781
     35 O5         -5.2696   -0.3895    4.0949 O.3       1 <0>        -0.3047
     36 C25        -6.3530   -1.1957    3.5954 C.3       1 <0>         0.2122
     37 O6         -7.0575   -0.3089    2.7064 O.3       1 <0>        -0.3034
     38 H4          3.1640    3.8733   -6.6766 H         1 <0>         0.0637
     39 H5          1.9957    4.9216   -7.5160 H         1 <0>         0.0700
     40 H6          2.0796    4.9275   -5.7380 H         1 <0>         0.0513
     41 H7          1.2096    2.5703   -7.4711 H         1 <0>         0.0903
     42 H8          0.1252    3.6245   -6.5325 H         1 <0>         0.0748
     43 H9          2.5287    0.8980   -6.4028 H         1 <0>         0.1487
     44 H10         2.9221   -0.4964   -4.4133 H         1 <0>         0.1490
     45 H11         1.9688    0.1671   -2.2389 H         1 <0>         0.1374
     46 H12        -0.2468    4.5117   -4.4118 H         1 <0>         0.4367
     47 H13         1.2232    2.7802    1.8519 H         1 <0>         0.1221
     48 H14         1.7912    1.1029    2.0315 H         1 <0>         0.1631
     49 H15         3.4313    2.7490    3.3965 H         1 <0>         0.4129
     50 H16         4.8252    3.1292    2.5391 H         1 <0>         0.4173
     51 H17        -2.2667    3.3535    2.5059 H         1 <0>         0.1138
     52 H18        -3.0795    4.0327    1.0754 H         1 <0>         0.1174
     53 H19        -5.0303    2.9547    0.1265 H         1 <0>         0.1430
     54 H20        -6.9712    1.4952    0.5256 H         1 <0>         0.1425
     55 H21        -3.0790    1.3193    3.5478 H         1 <0>         0.1399
     56 H22        -5.9690   -2.0584    3.0509 H         1 <0>         0.0892
     57 H23        -7.0013   -1.5144    4.4117 H         1 <0>         0.1388
     58 N4          1.2554    2.9215   -0.7936 N.4       1 <0>        -0.4948
     59 H24         0.8721    3.6760   -0.2122 H         1 <0>         0.4318
     60 H25         2.1643    3.2106   -1.1738 H         1 <0>         0.4567
@<TRIPOS>BOND
     1    1    2 1
     2    1   38 1
     3    1   39 1
     4    1   40 1
     5    2    3 1
     6    2   41 1
     7    2   42 1
     8    3    8 ar
     9    3    4 ar
    10    4    5 ar
    11    4   43 1
    12    5    6 ar
    13    5   44 1
    14    6    7 ar
    15    6   45 1
    16    7   12 1
    17    7    8 ar
    18    8    9 1
    19    9   10 am
    20    9   46 1
    21   10   11 2
    22   10   12 1
    23   12   13 1
    24   12   58 1
    25   13   14 1
    26   13   26 1
    27   13   15 1
    28   15   16 1
    29   15   17 1
    30   15   23 1
    31   17   18 1
    32   17   19 1
    33   17   58 1
    34   19   20 1
    35   19   47 1
    36   19   48 1
    37   20   21 2
    38   20   22 am
    39   22   49 1
    40   22   50 1
    41   23   24 2
    42   23   25 am
    43   25   26 am
    44   25   28 1
    45   26   27 2
    46   28   29 1
    47   28   51 1
    48   28   52 1
    49   29   34 ar
    50   29   30 ar
    51   30   31 ar
    52   30   53 1
    53   31   32 ar
    54   31   54 1
    55   32   37 1
    56   32   33 ar
    57   33   34 ar
    58   33   35 1
    59   34   55 1
    60   35   36 1
    61   36   37 1
    62   36   56 1
    63   36   57 1
    64   58   59 1
    65   58   60 1
@<TRIPOS>MOLECULE
ZINC08636332
   58    61     0     0     0
SMALL
USER_CHARGES
(3aR,4R,6R,7R,7aR)-3-(4-chlorophenyl)-6,7-dihydroxy-N-(2-morpholinoethyl)-2-thioxo-3a,4,5,6,7,7a-hexahydro-1H-benzimidazole-4-carboxamide
@<TRIPOS>ATOM
      1 C1         -0.9911    2.8449    4.5504 C.ar      1 <0>        -0.0960
      2 C2         -0.3067    2.6618    5.7360 C.ar      1 <0>        -0.1395
      3 C3          0.9558    3.2046    5.8984 C.ar      1 <0>        -0.0447
      4 C4          1.5388    3.9263    4.8716 C.ar      1 <0>        -0.1080
      5 C5          0.8615    4.1067    3.6816 C.ar      1 <0>         0.0234
      6 C6         -0.4058    3.5635    3.5161 C.ar      1 <0>         0.1607
      7 N1         -1.0943    3.7447    2.3113 N.pl3     1 <0>        -0.5345
      8 C7         -1.4304    2.6977    1.3467 C.3       1 <0>         0.1322
      9 H1         -2.2854    2.1772    1.7781 H         1 <0>         0.0857
     10 C8         -0.3889    1.6511    1.1706 C.3       1 <0>        -0.0845
     11 H2         -0.8871    0.6884    1.0555 H         1 <0>         0.1121
     12 C9          0.5426    1.8448   -0.0030 C.3       1 <0>        -0.1392
     13 C10        -0.2087    2.2249   -1.2620 C.3       1 <0>         0.0858
     14 H3          0.5109    2.4171   -2.0578 H         1 <0>         0.0769
     15 C11        -1.0640    3.4515   -1.0735 C.3       1 <0>         0.1010
     16 H4         -1.6842    3.5770   -1.9609 H         1 <0>         0.0834
     17 C12        -1.9695    3.4228    0.1351 C.3       1 <0>         0.1374
     18 H5         -2.9423    3.0161   -0.1415 H         1 <0>         0.1310
     19 N2         -2.1261    4.8147    0.6231 N.pl3     1 <0>        -0.6514
     20 C13        -1.5640    4.9118    1.8370 C.2       1 <0>         0.5717
     21 S1         -1.4556    6.3849    2.7025 S.2       1 <0>        -0.6011
     22 O1         -0.2037    4.5873   -0.9641 O.3       1 <0>        -0.5469
     23 O2         -1.0450    1.1328   -1.6490 O.3       1 <0>        -0.5623
     24 C14         0.4408    1.5978    2.4275 C.2       1 <0>         0.5054
     25 O3          1.3384    2.3958    2.5959 O.2       1 <0>        -0.4859
     26 N3          0.1852    0.6634    3.3645 N.am      1 <0>        -0.7179
     27 C15         1.0493    0.5515    4.5423 C.3       1 <0>         0.0572
     28 C16         0.4303   -0.4320    5.5374 C.3       1 <0>        -0.0208
     29 C17         2.5814   -1.1695    6.3718 C.3       1 <0>        -0.0474
     30 C18         3.4738   -1.2123    7.6150 C.3       1 <0>         0.0332
     31 O4          2.7944   -1.9141    8.6596 O.3       1 <0>        -0.3520
     32 C19         1.5396   -1.3318    9.0228 C.3       1 <0>         0.0322
     33 C20         0.6275   -1.2903    7.7939 C.3       1 <0>        -0.0414
     34 Cl1         1.8101    2.9792    7.3928 Cl        1 <0>        -0.0735
     35 H6         -1.9784    2.4253    4.4258 H         1 <0>         0.1359
     36 H7         -0.7592    2.0984    6.5386 H         1 <0>         0.1328
     37 H8          2.5244    4.3485    5.0008 H         1 <0>         0.1442
     38 H9          1.3172    4.6694    2.8803 H         1 <0>         0.1417
     39 H10         1.0867    0.9173   -0.1810 H         1 <0>         0.0838
     40 H11         1.2556    2.6338    0.2364 H         1 <0>         0.0977
     41 H12        -2.5626    5.5359    0.1433 H         1 <0>         0.4513
     42 H13         0.3554    4.7333   -1.7395 H         1 <0>         0.3896
     43 H14        -0.5634    0.3148   -1.8338 H         1 <0>         0.3878
     44 H15        -0.5709    0.0649    3.2591 H         1 <0>         0.4077
     45 H16         2.0322    0.1910    4.2388 H         1 <0>         0.0870
     46 H17         1.1504    1.5294    5.0130 H         1 <0>         0.1182
     47 H18        -0.5526   -0.0716    5.8409 H         1 <0>         0.1385
     48 H19         0.3293   -1.4099    5.0667 H         1 <0>         0.1434
     49 H20         2.4073   -2.1842    6.0136 H         1 <0>         0.1472
     50 H21         3.0713   -0.5866    5.5919 H         1 <0>         0.1414
     51 H22         3.6919   -0.1955    7.9417 H         1 <0>         0.0815
     52 H23         4.4051   -1.7264    7.3770 H         1 <0>         0.1467
     53 H24         1.7014   -0.3185    9.3904 H         1 <0>         0.0812
     54 H25         1.0716   -1.9317    9.8033 H         1 <0>         0.1472
     55 H26        -0.3087   -0.7955    8.0521 H         1 <0>         0.1433
     56 H27         0.4223   -2.3069    7.4585 H         1 <0>         0.1468
     57 N4          1.3029   -0.5197    6.7284 N.4       1 <0>        -0.3967
     58 H28         1.4946    0.4287    7.0721 H         1 <0>         0.4196
@<TRIPOS>BOND
     1    1    6 ar
     2    1    2 ar
     3    1   35 1
     4    2    3 ar
     5    2   36 1
     6    3    4 ar
     7    3   34 1
     8    4    5 ar
     9    4   37 1
    10    5    6 ar
    11    5   38 1
    12    6    7 1
    13    7   20 1
    14    7    8 1
    15    8    9 1
    16    8   17 1
    17    8   10 1
    18   10   11 1
    19   10   12 1
    20   10   24 1
    21   12   13 1
    22   12   39 1
    23   12   40 1
    24   13   14 1
    25   13   15 1
    26   13   23 1
    27   15   16 1
    28   15   17 1
    29   15   22 1
    30   17   18 1
    31   17   19 1
    32   19   20 1
    33   19   41 1
    34   20   21 2
    35   22   42 1
    36   23   43 1
    37   24   25 2
    38   24   26 am
    39   26   27 1
    40   26   44 1
    41   27   28 1
    42   27   45 1
    43   27   46 1
    44   28   47 1
    45   28   48 1
    46   28   57 1
    47   29   30 1
    48   29   49 1
    49   29   50 1
    50   29   57 1
    51   30   31 1
    52   30   51 1
    53   30   52 1
    54   31   32 1
    55   32   33 1
    56   32   53 1
    57   32   54 1
    58   33   55 1
    59   33   56 1
    60   33   57 1
    61   57   58 1
@<TRIPOS>MOLECULE
ZINC39355718
   60    63     0     0     0
SMALL
USER_CHARGES

@<TRIPOS>ATOM
      1 C1         -0.6026   -6.8369    3.8387 C.3       1 <0>        -0.0981
      2 C2         -0.5491   -5.8746    2.6802 C.ar      1 <0>         0.1965
      3 C3         -0.5210   -6.3464    1.3771 C.ar      1 <0>        -0.2553
      4 C4         -0.4719   -5.4270    0.3409 C.ar      1 <0>         0.2125
      5 N1         -0.4536   -4.1352    0.6250 N.ar      1 <0>        -0.5508
      6 C5         -0.4815   -3.7179    1.8814 C.ar      1 <0>         0.5512
      7 N2         -0.5340   -4.5694    2.8941 N.ar      1 <0>        -0.4811
      8 N3         -0.4611   -2.3542    2.1430 N.pl3     1 <0>        -0.6078
      9 C6         -0.3785   -1.9070    3.4313 C.2       1 <0>         0.7020
     10 N4         -0.2100   -2.7707    4.4236 N.2       1 <0>        -0.6303
     11 C7         -0.0118   -2.3292    5.6643 C.2       1 <0>         0.5137
     12 O1         -0.0859   -1.1402    5.9053 O.2       1 <0>        -0.5623
     13 C8          0.3043   -3.3037    6.7695 C.3       1 <0>        -0.0939
     14 S1          0.5179   -2.4015    8.3286 S.3       1 <0>        -0.1215
     15 C9          0.8878   -3.7000    9.5400 C.3       1 <0>         0.3849
     16 H1          1.0254   -3.2688   10.5315 H         1 <0>         0.1602
     17 N5          2.0838   -4.4584    9.1357 N.pl3     1 <0>        -0.6948
     18 C10         1.6768   -5.7708    8.9528 C.cat     1 <0>         0.7001
     19 N6          0.4173   -5.9206    9.1850 N.pl3     1 <0>        -0.4258
     20 N7         -0.1849   -4.7096    9.5596 N.pl3     1 <0>        -0.6093
     21 N8          2.5236   -6.8005    8.5660 N.pl3     1 <0>        -0.7967
     22 N9         -0.4691   -0.5740    3.6967 N.pl3     1 <0>        -0.6998
     23 C11        -0.7915    0.3667    2.6209 C.3       1 <0>         0.0860
     24 C12        -0.7115    1.7985    3.1545 C.3       1 <0>        -0.0454
     25 C13        -1.1609    2.7593    2.0840 C.2       1 <0>        -0.1817
     26 C14        -2.5363    3.1893    1.8208 C.ar      1 <0>        -0.0750
     27 C15        -3.7719    2.8952    2.4010 C.ar      1 <0>        -0.1121
     28 C16        -4.9151    3.4839    1.9047 C.ar      1 <0>         0.0780
     29 C17        -4.8420    4.3658    0.8329 C.ar      1 <0>        -0.1294
     30 C18        -3.6297    4.6649    0.2511 C.ar      1 <0>        -0.0945
     31 C19        -2.4641    4.0821    0.7362 C.ar      1 <0>         0.0860
     32 N10        -1.1370    4.1779    0.3771 N.pl3     1 <0>        -0.5893
     33 C20        -0.3760    3.3878    1.1947 C.2       1 <0>         0.0769
     34 F1         -6.1128    3.2019    2.4626 F         1 <0>        -0.1396
     35 C21        -0.4394   -5.8934   -1.0918 C.3       1 <0>        -0.1108
     36 H2         -1.6393   -6.9830    4.1422 H         1 <0>         0.0843
     37 H3         -0.1742   -7.7928    3.5371 H         1 <0>         0.0802
     38 H4         -0.0330   -6.4311    4.6747 H         1 <0>         0.0755
     39 H5         -0.5365   -7.4069    1.1736 H         1 <0>         0.1493
     40 H6         -0.5054   -1.7192    1.4111 H         1 <0>         0.4352
     41 H7         -0.5146   -4.0159    6.8711 H         1 <0>         0.1152
     42 H8          1.2234   -3.8386    6.5304 H         1 <0>         0.1076
     43 H9          2.9808   -4.1080    9.0198 H         1 <0>         0.4661
     44 H10        -1.1172   -4.5650    9.7852 H         1 <0>         0.4768
     45 H11         3.4635   -6.6214    8.4065 H         1 <0>         0.4444
     46 H12         2.1755   -7.6990    8.4552 H         1 <0>         0.4398
     47 H13        -0.3202   -0.2477    4.5979 H         1 <0>         0.4372
     48 H14        -0.0799    0.2429    1.8046 H         1 <0>         0.0720
     49 H15        -1.8000    0.1705    2.2567 H         1 <0>         0.0770
     50 H16        -1.3579    1.8979    4.0265 H         1 <0>         0.0823
     51 H17         0.3168    2.0241    3.4368 H         1 <0>         0.0817
     52 H18        -3.8315    2.2100    3.2336 H         1 <0>         0.1328
     53 H19        -5.7445    4.8207    0.4523 H         1 <0>         0.1415
     54 H20        -3.5846    5.3518   -0.5811 H         1 <0>         0.1337
     55 H21         0.6971    3.2829    1.1319 H         1 <0>         0.1746
     56 H22        -0.7932    4.7269   -0.3450 H         1 <0>         0.4217
     57 H23        -1.4585   -5.9850   -1.4673 H         1 <0>         0.0904
     58 H24         0.1072   -5.1701   -1.6970 H         1 <0>         0.0851
     59 H25         0.0567   -6.8623   -1.1472 H         1 <0>         0.0860
     60 H26        -0.0550   -6.7646    9.1109 H         1 <0>         0.4669
@<TRIPOS>BOND
     1    1    2 1
     2    1   36 1
     3    1   37 1
     4    1   38 1
     5    2    7 ar
     6    2    3 ar
     7    3    4 ar
     8    3   39 1
     9    4    5 ar
    10    4   35 1
    11    5    6 ar
    12    6    7 ar
    13    6    8 1
    14    8    9 1
    15    8   40 1
    16    9   10 2
    17    9   22 1
    18   10   11 1
    19   11   12 2
    20   11   13 1
    21   13   14 1
    22   13   41 1
    23   13   42 1
    24   14   15 1
    25   15   16 1
    26   15   20 1
    27   15   17 1
    28   17   18 1
    29   17   43 1
    30   18   19 2
    31   18   21 1
    32   19   20 1
    33   19   60 1
    34   20   44 1
    35   21   45 1
    36   21   46 1
    37   22   23 1
    38   22   47 1
    39   23   24 1
    40   23   48 1
    41   23   49 1
    42   24   50 1
    43   24   51 1
    44   24   25 1
    45   25   26 1
    46   25   33 2
    47   26   27 ar
    48   26   31 ar
    49   27   28 ar
    50   27   52 1
    51   28   29 ar
    52   28   34 1
    53   29   30 ar
    54   29   53 1
    55   30   31 ar
    56   30   54 1
    57   31   32 1
    58   32   56 1
    59   32   33 1
    60   33   55 1
    61   35   57 1
    62   35   58 1
    63   35   59 1
@<TRIPOS>MOLECULE
ZINC44253926
   54    55     0     0     0
SMALL
USER_CHARGES

@<TRIPOS>ATOM
      1 C1          0.5975   -2.3351    0.6083 C.3       1 <0>        -0.1405
      2 C2          0.3810   -3.6751   -0.0977 C.3       1 <0>        -0.0364
      3 C3          0.9655   -4.8019    0.7565 C.3       1 <0>        -0.1417
      4 C4         -1.1176   -3.9107   -0.2963 C.3       1 <0>        -0.1493
      5 C5          1.0682   -3.6532   -1.4387 C.ar      1 <0>        -0.0389
      6 C6          0.3318   -3.8268   -2.5956 C.ar      1 <0>        -0.1165
      7 C7          0.9621   -3.8067   -3.8257 C.ar      1 <0>        -0.0867
      8 C8          2.3288   -3.6125   -3.8989 C.ar      1 <0>        -0.1094
      9 C9          3.0651   -3.4380   -2.7421 C.ar      1 <0>        -0.0971
     10 C10         2.4341   -3.4538   -1.5122 C.ar      1 <0>        -0.1134
     11 C11         3.0161   -3.5916   -5.2399 C.3       1 <0>        -0.0684
     12 S1          3.0465   -1.8935   -5.8774 S.3       1 <0>        -0.0497
     13 C12         3.8705   -2.0351   -7.4283 C.2       1 <0>         0.0698
     14 C13         5.0313   -1.4166   -7.7839 C.2       1 <0>        -0.2198
     15 C14         5.3361   -1.7979   -9.0931 C.2       1 <0>         0.0170
     16 N1          4.4029   -2.6118   -9.5155 N.2       1 <0>        -0.1859
     17 N2          3.4680   -2.7857   -8.4870 N.pl3     1 <0>        -0.3117
     18 C15         2.2686   -3.6250   -8.5436 C.3       1 <0>         0.0749
     19 C16         6.5365   -1.3474   -9.8849 C.3       1 <0>         0.5501
     20 F1          7.7054   -1.7301   -9.2182 F         1 <0>        -0.1614
     21 F2          6.5078   -1.9387  -11.1525 F         1 <0>        -0.1505
     22 F3          6.5109    0.0449  -10.0192 F         1 <0>        -0.1593
     23 C17         5.8424   -0.4866   -6.9189 C.3       1 <0>         0.1364
     24 H1          6.8252   -0.3387   -7.3665 H         1 <0>         0.1602
     25 C18         5.1254    0.8602   -6.8061 C.3       1 <0>        -0.1713
     26 C19         5.9928    1.8289   -6.0444 C.2       1 <0>         0.5173
     27 O1          7.0778    1.4767   -5.6323 O.2       1 <0>        -0.5546
     28 N3          5.5630    3.0866   -5.8211 N.am      1 <0>        -0.8312
     29 N4          5.9970   -1.0727   -5.5807 N.4       1 <0>        -0.6358
     30 H2          1.6652   -2.1673    0.7498 H         1 <0>         0.0573
     31 H3          0.1811   -1.5324   -0.0002 H         1 <0>         0.0573
     32 H4          0.1005   -2.3510    1.5783 H         1 <0>         0.0653
     33 H5          0.4685   -4.8178    1.7265 H         1 <0>         0.0654
     34 H6          0.8113   -5.7565    0.2536 H         1 <0>         0.0583
     35 H7          2.0332   -4.6341    0.8981 H         1 <0>         0.0577
     36 H8         -1.5340   -3.1079   -0.9049 H         1 <0>         0.0601
     37 H9         -1.2718   -4.8653   -0.7993 H         1 <0>         0.0606
     38 H10        -1.6146   -3.9265    0.6736 H         1 <0>         0.0651
     39 H11        -0.7360   -3.9785   -2.5384 H         1 <0>         0.1367
     40 H12         0.3869   -3.9430   -4.7295 H         1 <0>         0.1272
     41 H13         4.1329   -3.2866   -2.7993 H         1 <0>         0.1217
     42 H14         3.0088   -3.3138   -0.6086 H         1 <0>         0.1301
     43 H15         4.0372   -3.9569   -5.1306 H         1 <0>         0.1058
     44 H16         2.4739   -4.2314   -5.9361 H         1 <0>         0.1080
     45 H17         1.4306   -3.0364   -8.9170 H         1 <0>         0.1075
     46 H18         2.4464   -4.4682   -9.2111 H         1 <0>         0.1160
     47 H19         2.0364   -3.9948   -7.5449 H         1 <0>         0.1007
     48 H20         4.9315    1.2533   -7.8041 H         1 <0>         0.1483
     49 H21         4.1809    0.7260   -6.2786 H         1 <0>         0.1241
     50 H22         4.6953    3.3683   -6.1507 H         1 <0>         0.4125
     51 H23         6.1214    3.7101   -5.3308 H         1 <0>         0.4177
     52 H24         6.3561   -2.0119   -5.6643 H         1 <0>         0.4340
     53 H25         6.6403   -0.5134   -5.0409 H         1 <0>         0.4445
     54 H26         5.1007   -1.0952   -5.1178 H         1 <0>         0.4225
@<TRIPOS>BOND
     1    1    2 1
     2    1   30 1
     3    1   31 1
     4    1   32 1
     5    2    3 1
     6    2    4 1
     7    2    5 1
     8    3   33 1
     9    3   34 1
    10    3   35 1
    11    4   36 1
    12    4   37 1
    13    4   38 1
    14    5   10 ar
    15    5    6 ar
    16    6    7 ar
    17    6   39 1
    18    7    8 ar
    19    7   40 1
    20    8    9 ar
    21    8   11 1
    22    9   10 ar
    23    9   41 1
    24   10   42 1
    25   11   12 1
    26   11   43 1
    27   11   44 1
    28   12   13 1
    29   13   17 1
    30   13   14 2
    31   14   15 1
    32   14   23 1
    33   15   16 2
    34   15   19 1
    35   16   17 1
    36   17   18 1
    37   18   45 1
    38   18   46 1
    39   18   47 1
    40   19   20 1
    41   19   21 1
    42   19   22 1
    43   23   24 1
    44   23   25 1
    45   23   29 1
    46   25   26 1
    47   25   48 1
    48   25   49 1
    49   26   27 2
    50   26   28 am
    51   28   50 1
    52   28   51 1
    53   29   52 1
    54   29   53 1
    55   29   54 1
@<TRIPOS>MOLECULE
ZINC05663690
   75    75     0     0     0
SMALL
USER_CHARGES
2-[6-amino-2-[2-(2-amino-3-methyl-butanoyl)amino-4-methyl-pentanoyl]amino-hexanoyl]amino-2-(3-chloro-4,5-dihydroisoxazol-5-yl)-acetic acid
@<TRIPOS>ATOM
      1 C1         -5.1778    4.1420   -2.7039 C.3       1 <0>        -0.1444
      2 C2         -4.9488    3.6750   -1.2651 C.3       1 <0>        -0.1081
      3 C3         -4.7732    4.8926   -0.3554 C.3       1 <0>        -0.1574
      4 C4         -6.1543    2.8577   -0.7962 C.3       1 <0>        -0.1152
      5 C5         -5.8631    2.2652    0.5840 C.3       1 <0>         0.1203
      6 H1         -5.5595    3.0609    1.2643 H         1 <0>         0.1233
      7 C6         -4.7547    1.2505    0.4714 C.2       1 <0>         0.5186
      8 O1         -5.0173    0.0669    0.4370 O.2       1 <0>        -0.5412
      9 N1         -3.4716    1.6581    0.4088 N.am      1 <0>        -0.6927
     10 C7         -2.3889    0.6713    0.4029 C.3       1 <0>         0.1316
     11 H2         -2.6645   -0.1742    1.0332 H         1 <0>         0.1161
     12 C8         -2.1505    0.1844   -1.0278 C.3       1 <0>        -0.1298
     13 C9         -3.3870   -0.5684   -1.5231 C.3       1 <0>        -0.1064
     14 C10        -3.1486   -1.0553   -2.9539 C.3       1 <0>        -0.1594
     15 C11        -4.3851   -1.8080   -3.4492 C.3       1 <0>        -0.0012
     16 C12        -1.1290    1.3046    0.9345 C.2       1 <0>         0.5102
     17 O2         -1.1349    2.4659    1.2840 O.2       1 <0>        -0.5335
     18 N2          0.0043    0.5804    1.0217 N.am      1 <0>        -0.6857
     19 C13         1.2306    1.1977    1.5328 C.3       1 <0>         0.1009
     20 H3          0.9784    1.9115    2.3170 H         1 <0>         0.1102
     21 C14         2.1469    0.1142    2.1049 C.3       1 <0>         0.0542
     22 H4          1.6230   -0.4843    2.8502 H         1 <0>         0.0858
     23 C15         3.4361    0.7333    2.6966 C.3       1 <0>        -0.1658
     24 C16         4.4949   -0.2810    2.3082 C.2       1 <0>         0.1436
     25 N3          4.0111   -1.0458    1.4077 N.2       1 <0>        -0.2860
     26 O3          2.6810   -0.7186    1.0551 O.3       1 <0>        -0.1742
     27 Cl1         6.0944   -0.3841    2.9750 Cl        1 <0>         0.0240
     28 C17         1.9381    1.9132    0.4110 C.2       1 <0>         0.4702
     29 O4          1.4665    1.9079   -0.7014 O.co2     1 <0>        -0.6191
     30 N4         -7.0699    1.6150    1.1007 N.am      1 <0>        -0.6867
     31 C18        -8.0287    2.3504    1.6976 C.2       1 <0>         0.5044
     32 O5         -7.9362    3.5594    1.7258 O.2       1 <0>        -0.5140
     33 C19        -9.2158    1.6706    2.3299 C.3       1 <0>         0.0168
     34 H5         -9.5403    0.8440    1.6979 H         1 <0>         0.1624
     35 C20        -8.8223    1.1349    3.7080 C.3       1 <0>        -0.1071
     36 C21       -10.0275    0.4447    4.3500 C.3       1 <0>        -0.1683
     37 C22        -7.6793    0.1291    3.5570 C.3       1 <0>        -0.1643
     38 H6         -6.0746    4.7601   -2.7470 H         1 <0>         0.0575
     39 H7         -4.3189    4.7242   -3.0379 H         1 <0>         0.0663
     40 H8         -5.3029    3.2746   -3.3520 H         1 <0>         0.0502
     41 H9         -4.0520    3.0569   -1.2221 H         1 <0>         0.0781
     42 H10        -3.9783    5.5272   -0.7473 H         1 <0>         0.0692
     43 H11        -5.7049    5.4572   -0.3203 H         1 <0>         0.0612
     44 H12        -4.5113    4.5608    0.6493 H         1 <0>         0.0547
     45 H13        -6.3446    2.0517   -1.5049 H         1 <0>         0.0708
     46 H14        -7.0303    3.5037   -0.7369 H         1 <0>         0.0851
     47 H15        -3.2650    2.6050    0.3677 H         1 <0>         0.4186
     48 H16        -1.9621    1.0401   -1.6762 H         1 <0>         0.0831
     49 H17        -1.2881   -0.4820   -1.0459 H         1 <0>         0.0901
     50 H18        -3.5754   -1.4241   -0.8748 H         1 <0>         0.0813
     51 H19        -4.2494    0.0980   -1.5051 H         1 <0>         0.0752
     52 H20        -2.9602   -0.1995   -3.6022 H         1 <0>         0.0878
     53 H21        -2.2862   -1.7216   -2.9719 H         1 <0>         0.0913
     54 H22        -4.5735   -2.6637   -2.8008 H         1 <0>         0.1309
     55 H23        -5.2475   -1.1417   -3.4311 H         1 <0>         0.1290
     56 H24        -4.9592   -2.7761   -5.1730 H         1 <0>         0.4375
     57 H25        -3.9157   -1.5070   -5.4310 H         1 <0>         0.4375
     58 H26         0.0090   -0.3485    0.7422 H         1 <0>         0.3988
     59 H27         3.6436    1.7025    2.2432 H         1 <0>         0.1760
     60 H28         3.3605    0.8228    3.7803 H         1 <0>         0.1014
     61 H29        -7.1789    0.6551    1.0133 H         1 <0>         0.4183
     62 H30        -8.4978    1.9615    4.3401 H         1 <0>         0.1048
     63 H31       -10.3520   -0.3819    3.7180 H         1 <0>         0.0760
     64 H32        -9.7472    0.0631    5.3318 H         1 <0>         0.0914
     65 H33       -10.8418    1.1612    4.4576 H         1 <0>         0.0567
     66 H34        -6.8207    0.6209    3.0996 H         1 <0>         0.0722
     67 H35        -7.3990   -0.2525    4.5387 H         1 <0>         0.0875
     68 H36        -8.0038   -0.6975    2.9249 H         1 <0>         0.0724
     69 H37       -11.1423    2.1897    2.8372 H         1 <0>         0.4439
     70 H38       -10.0371    3.4127    3.0572 H         1 <0>         0.4460
     71 N5         -4.1365   -2.2909   -4.8189 N.4       1 <0>        -0.6485
     72 H39        -3.3424   -2.9417   -4.8084 H         1 <0>         0.4415
     73 O6          3.0924    2.5563    0.6475 O.co2     1 <0>        -0.7394
     74 N6        -10.3161    2.6432    2.4508 N.4       1 <0>        -0.6308
     75 H40       -10.5420    3.0146    1.5206 H         1 <0>         0.4444
@<TRIPOS>BOND
     1    1    2 1
     2    1   38 1
     3    1   39 1
     4    1   40 1
     5    2    3 1
     6    2    4 1
     7    2   41 1
     8    3   42 1
     9    3   43 1
    10    3   44 1
    11    4    5 1
    12    4   45 1
    13    4   46 1
    14    5    6 1
    15    5    7 1
    16    5   30 1
    17    7    8 2
    18    7    9 am
    19    9   10 1
    20    9   47 1
    21   10   11 1
    22   10   12 1
    23   10   16 1
    24   12   13 1
    25   12   48 1
    26   12   49 1
    27   13   14 1
    28   13   50 1
    29   13   51 1
    30   14   15 1
    31   14   52 1
    32   14   53 1
    33   15   54 1
    34   15   55 1
    35   15   71 1
    36   16   17 2
    37   16   18 am
    38   18   19 1
    39   18   58 1
    40   19   20 1
    41   19   21 1
    42   19   28 1
    43   21   22 1
    44   21   26 1
    45   21   23 1
    46   23   24 1
    47   23   59 1
    48   23   60 1
    49   24   25 2
    50   24   27 1
    51   25   26 1
    52   28   29 2
    53   28   73 1
    54   30   31 am
    55   30   61 1
    56   31   32 2
    57   31   33 1
    58   33   34 1
    59   33   35 1
    60   33   74 1
    61   35   36 1
    62   35   37 1
    63   35   62 1
    64   36   63 1
    65   36   64 1
    66   36   65 1
    67   37   66 1
    68   37   67 1
    69   37   68 1
    70   56   71 1
    71   57   71 1
    72   69   74 1
    73   70   74 1
    74   71   72 1
    75   74   75 1
@<TRIPOS>MOLECULE
ZINC17211480
   67    67     0     0     0
SMALL
USER_CHARGES
(2S,3Z)-3-(aminocarbamothioylhydrazono)-2-[(dibutylamino)methyl]-N-(2,4-dinitrophenyl)butanamide
@<TRIPOS>ATOM
      1 C1         -8.7001    1.7228    1.5068 C.3       1 <0>        -0.1592
      2 C2         -7.4231    0.8811    1.4661 C.3       1 <0>        -0.1194
      3 C3         -6.2349    1.7744    1.1039 C.3       1 <0>        -0.1498
      4 C4         -4.9578    0.9327    1.0632 C.3       1 <0>        -0.0081
      5 C5         -3.5002    2.6147    2.0166 C.3       1 <0>        -0.0238
      6 C6         -2.9866    1.7039    3.1335 C.3       1 <0>        -0.1468
      7 C7         -2.5778    2.5545    4.3378 C.3       1 <0>        -0.1233
      8 C8         -2.0642    1.6437    5.4547 C.3       1 <0>        -0.1542
      9 C9         -2.6291    1.0290    0.4074 C.3       1 <0>         0.0163
     10 C10        -1.4929    1.9815    0.0296 C.3       1 <0>        -0.1405
     11 H1         -1.2706    2.6347    0.8734 H         1 <0>         0.1277
     12 C11        -0.2649    1.1830   -0.3247 C.2       1 <0>         0.0927
     13 N1          0.7858    1.2687    0.4016 N.2       1 <0>        -0.1871
     14 N2          0.8366    2.1922    1.4539 N.pl3     1 <0>        -0.5448
     15 C12         1.9782    2.3575    2.1509 C.2       1 <0>         0.5821
     16 S1          2.0403    3.4860    3.4368 S.2       1 <0>        -0.5643
     17 N3          3.0710    1.6343    1.8356 N.pl3     1 <0>        -0.4929
     18 N4          3.0214    0.7339    0.8096 N.3       1 <0>        -0.6006
     19 C13        -0.2758    0.2790   -1.5304 C.3       1 <0>        -0.1092
     20 C14        -1.9091    2.8150   -1.1549 C.2       1 <0>         0.5326
     21 O1         -3.0065    2.6622   -1.6484 O.2       1 <0>        -0.5106
     22 N5         -1.0619    3.7302   -1.6660 N.am      1 <0>        -0.6447
     23 C15        -1.4867    4.5800   -2.6933 C.ar      1 <0>         0.2461
     24 C16        -2.4593    4.1563   -3.5896 C.ar      1 <0>        -0.1286
     25 C17        -2.8763    4.9974   -4.6024 C.ar      1 <0>         0.0180
     26 C18        -2.3268    6.2607   -4.7243 C.ar      1 <0>        -0.0503
     27 C19        -1.3587    6.6857   -3.8334 C.ar      1 <0>         0.0313
     28 C20        -0.9407    5.8509   -2.8153 C.ar      1 <0>        -0.0711
     29 N6          0.0917    6.3088   -1.8584 N.pl3     1 <0>         0.0329
     30 O2          0.5099    7.4513   -1.9143 O.2       1 <0>        -0.0937
     31 O3          0.5230    5.5429   -1.0152 O.3       1 <0>        -0.1779
     32 N7         -2.7764    7.1599   -5.8108 N.pl3     1 <0>         0.0208
     33 O4         -3.6294    6.7869   -6.5961 O.2       1 <0>        -0.1285
     34 O5         -2.2934    8.2727   -5.9194 O.3       1 <0>        -0.1287
     35 H2         -9.5466    1.0865    1.7648 H         1 <0>         0.0677
     36 H3         -8.5942    2.5079    2.2554 H         1 <0>         0.0588
     37 H4         -8.8694    2.1737    0.5289 H         1 <0>         0.0596
     38 H5         -7.5290    0.0961    0.7174 H         1 <0>         0.0746
     39 H6         -7.2539    0.4303    2.4440 H         1 <0>         0.0732
     40 H7         -6.1290    2.5594    1.8526 H         1 <0>         0.0846
     41 H8         -6.4041    2.2253    0.1260 H         1 <0>         0.0884
     42 H9         -5.0303    0.2011    0.2585 H         1 <0>         0.1336
     43 H10        -4.8332    0.4154    2.0145 H         1 <0>         0.1344
     44 H11        -2.7375    3.3536    1.7708 H         1 <0>         0.1182
     45 H12        -4.4049    3.1233    2.3497 H         1 <0>         0.1407
     46 H13        -3.7747    1.0112    3.4288 H         1 <0>         0.0936
     47 H14        -2.1239    1.1417    2.7761 H         1 <0>         0.0788
     48 H15        -1.7896    3.2472    4.0425 H         1 <0>         0.0774
     49 H16        -3.4405    3.1167    4.6952 H         1 <0>         0.0762
     50 H17        -2.8523    0.9510    5.7500 H         1 <0>         0.0576
     51 H18        -1.2014    1.0815    5.0973 H         1 <0>         0.0565
     52 H19        -1.7729    2.2497    6.3126 H         1 <0>         0.0702
     53 H20        -2.8899    0.4147   -0.4543 H         1 <0>         0.1534
     54 H21        -2.3073    0.3869    1.2273 H         1 <0>         0.1526
     55 H22         0.0502    2.7127    1.6808 H         1 <0>         0.4089
     56 H23         3.8926    1.7532    2.3373 H         1 <0>         0.4385
     57 H24         3.9099    0.2704    0.6921 H         1 <0>         0.3677
     58 H25         2.2803    0.0641    0.9517 H         1 <0>         0.3587
     59 H26        -0.6188   -0.7133   -1.2373 H         1 <0>         0.1001
     60 H27        -0.9480    0.6877   -2.2848 H         1 <0>         0.0838
     61 H28         0.7314    0.2087   -1.9410 H         1 <0>         0.1041
     62 H29        -0.1577    3.7997   -1.3217 H         1 <0>         0.4387
     63 H30        -2.8893    3.1701   -3.4945 H         1 <0>         0.1938
     64 H31        -3.6326    4.6684   -5.2997 H         1 <0>         0.1837
     65 H32        -0.9320    7.6730   -3.9309 H         1 <0>         0.1939
     66 N8         -3.8087    1.8258    0.8053 N.4       1 <0>        -0.3978
     67 H33        -4.0503    2.4681    0.0416 H         1 <0>         0.4332
@<TRIPOS>BOND
     1    1    2 1
     2    1   35 1
     3    1   36 1
     4    1   37 1
     5    2    3 1
     6    2   38 1
     7    2   39 1
     8    3    4 1
     9    3   40 1
    10    3   41 1
    11    4   42 1
    12    4   43 1
    13    4   66 1
    14    5    6 1
    15    5   44 1
    16    5   45 1
    17    5   66 1
    18    6    7 1
    19    6   46 1
    20    6   47 1
    21    7    8 1
    22    7   48 1
    23    7   49 1
    24    8   50 1
    25    8   51 1
    26    8   52 1
    27    9   10 1
    28    9   53 1
    29    9   54 1
    30    9   66 1
    31   10   11 1
    32   10   12 1
    33   10   20 1
    34   12   13 2
    35   12   19 1
    36   13   14 1
    37   14   15 1
    38   14   55 1
    39   15   16 2
    40   15   17 1
    41   17   18 1
    42   17   56 1
    43   18   57 1
    44   18   58 1
    45   19   59 1
    46   19   60 1
    47   19   61 1
    48   20   21 2
    49   20   22 am
    50   22   23 1
    51   22   62 1
    52   23   28 ar
    53   23   24 ar
    54   24   25 ar
    55   24   63 1
    56   25   26 ar
    57   25   64 1
    58   26   27 ar
    59   26   32 1
    60   27   28 ar
    61   27   65 1
    62   28   29 1
    63   29   30 2
    64   29   31 1
    65   32   33 2
    66   32   34 1
    67   66   67 1
@<TRIPOS>MOLECULE
ZINC31167917
   71    73     0     0     0
SMALL
USER_CHARGES
(2R,3S,4R,5S,6S)-2-[(2S)-2-[2-hydroxy-5-[(E)-3-hydroxyprop-1-enyl]-3-methoxy-phenyl]-3-(4-hydroxy-3-methoxy-phenyl)propoxy]-6-(hydroxymethyl)tetrahydropyran-3,4,5-triol
@<TRIPOS>ATOM
      1 C1          0.0621   -2.0001    3.5670 C.3       1 <0>         0.0240
      2 O1          0.0617   -2.7719    2.3643 O.3       1 <0>        -0.3091
      3 C2          0.0417   -2.0856    1.1904 C.ar      1 <0>         0.0890
      4 C3          0.0229   -0.7001    1.1962 C.ar      1 <0>        -0.1600
      5 C4          0.0021   -0.0041    0.0020 C.ar      1 <0>        -0.0748
      6 C5         -0.0057   -0.6874   -1.1998 C.ar      1 <0>        -0.1044
      7 C6          0.0187   -2.0695   -1.2128 C.ar      1 <0>        -0.1783
      8 C7          0.0396   -2.7733   -0.0194 C.ar      1 <0>         0.1221
      9 O2          0.0575   -4.1331   -0.0303 O.3       1 <0>        -0.5023
     10 C8         -0.0184    1.5028    0.0103 C.3       1 <0>        -0.0680
     11 C9          1.4170    2.0324   -0.0006 C.3       1 <0>        -0.0259
     12 H1          1.9851    1.5903    0.8312 H         1 <0>         0.0964
     13 C10         1.3994    3.5564    0.1335 C.3       1 <0>         0.0698
     14 O3          0.8734    3.9159    1.4126 O.3       1 <0>        -0.3851
     15 C11         0.8134    5.3253    1.6411 C.3       1 <0>         0.2585
     16 H2          0.2922    5.7780    0.7847 H         1 <0>         0.1120
     17 C12         0.1236    5.5964    2.9806 C.3       1 <0>         0.1262
     18 H3         -0.0348    6.6731    3.1407 H         1 <0>         0.0861
     19 C13         0.9549    4.9776    4.1086 C.3       1 <0>         0.1013
     20 H4          0.9627    3.8792    4.0491 H         1 <0>         0.0833
     21 C14         2.3732    5.5540    4.0580 C.3       1 <0>         0.0648
     22 H5          3.0047    5.1425    4.8592 H         1 <0>         0.0660
     23 C15         2.9761    5.2845    2.6769 C.3       1 <0>         0.0578
     24 H6          3.0102    4.2069    2.4587 H         1 <0>         0.0839
     25 O4          2.1383    5.8599    1.6723 O.3       1 <0>        -0.3686
     26 C16         4.3703    5.9096    2.5980 C.3       1 <0>         0.0937
     27 O5          4.9795    5.5598    1.3536 O.3       1 <0>        -0.5894
     28 O6          2.3248    6.9627    4.2927 O.3       1 <0>        -0.5757
     29 O7          0.3572    5.2887    5.3688 O.3       1 <0>        -0.5891
     30 O8         -1.1806    5.0124    2.9730 O.3       1 <0>        -0.5841
     31 C17         2.0838    1.6498   -1.2967 C.ar      1 <0>        -0.0805
     32 C18         1.5579    2.0848   -2.4960 C.ar      1 <0>        -0.0955
     33 C19         2.1740    1.7316   -3.6970 C.ar      1 <0>        -0.0612
     34 C20         3.3223    0.9379   -3.6821 C.ar      1 <0>        -0.1612
     35 C21         3.8443    0.5052   -2.4773 C.ar      1 <0>         0.0380
     36 C22         3.2276    0.8662   -1.2814 C.ar      1 <0>         0.1567
     37 O9          3.7452    0.4446   -0.0970 O.3       1 <0>        -0.4984
     38 O10         4.9631   -0.2677   -2.4593 O.3       1 <0>        -0.3259
     39 C23         5.5465   -0.5941   -3.7223 C.3       1 <0>         0.0297
     40 C24         1.6123    2.1970   -4.9822 C.2       1 <0>        -0.1006
     41 C25         2.1989    1.8605   -6.1228 C.2       1 <0>        -0.1528
     42 C26         1.6261    2.3352   -7.4333 C.3       1 <0>         0.1152
     43 O11         2.6816    2.8157   -8.2683 O.3       1 <0>        -0.6008
     44 H7          0.0792   -2.6748    4.4356 H         1 <0>         0.0997
     45 H8         -0.8443   -1.3780    3.6037 H         1 <0>         0.0546
     46 H9          0.9518   -1.3535    3.5874 H         1 <0>         0.0541
     47 H10         0.0248   -0.1640    2.1338 H         1 <0>         0.1316
     48 H11        -0.0268   -0.1401   -2.1306 H         1 <0>         0.1214
     49 H12         0.0170   -2.6008   -2.1531 H         1 <0>         0.1285
     50 H13         0.0558   -4.6755   -0.9873 H         1 <0>         0.4274
     51 H14        -0.5505    1.8672   -0.8809 H         1 <0>         0.0725
     52 H15        -0.5333    1.8575    0.9153 H         1 <0>         0.0867
     53 H16         2.4239    3.9449    0.0359 H         1 <0>         0.0637
     54 H17         0.7672    3.9868   -0.6571 H         1 <0>         0.0527
     55 H18         4.2861    7.0040    2.6702 H         1 <0>         0.0539
     56 H19         4.9880    5.5340    3.4270 H         1 <0>         0.0567
     57 H20         5.9911    5.9205    1.1159 H         1 <0>         0.4116
     58 H21         3.2535    7.5523    4.2942 H         1 <0>         0.4033
     59 H22         0.8172    4.9265    6.3001 H         1 <0>         0.4111
     60 H23        -1.8297    5.1047    3.8563 H         1 <0>         0.4184
     61 H24         0.6692    2.6984   -2.5051 H         1 <0>         0.1305
     62 H25         3.8017    0.6622   -4.6098 H         1 <0>         0.1312
     63 H26         4.6526   -0.1771   -0.0835 H         1 <0>         0.4367
     64 H27         6.4380   -1.2187   -3.5639 H         1 <0>         0.1035
     65 H28         5.8346    0.3310   -4.2431 H         1 <0>         0.0566
     66 H29         4.8159   -1.1458   -4.3320 H         1 <0>         0.0556
     67 H30         0.7076    2.8226   -4.9927 H         1 <0>         0.1237
     68 H31         3.1036    1.2349   -6.1124 H         1 <0>         0.1169
     69 H32         1.1140    1.5000   -7.9336 H         1 <0>         0.0534
     70 H33         0.9076    3.1470   -7.2469 H         1 <0>         0.0492
     71 H34         2.4550    3.2057   -9.2716 H         1 <0>         0.4120
@<TRIPOS>BOND
     1    1    2 1
     2    1   44 1
     3    1   45 1
     4    1   46 1
     5    2    3 1
     6    3    8 ar
     7    3    4 ar
     8    4    5 ar
     9    4   47 1
    10    5    6 ar
    11    5   10 1
    12    6    7 ar
    13    6   48 1
    14    7    8 ar
    15    7   49 1
    16    8    9 1
    17    9   50 1
    18   10   11 1
    19   10   51 1
    20   10   52 1
    21   11   12 1
    22   11   13 1
    23   11   31 1
    24   13   14 1
    25   13   53 1
    26   13   54 1
    27   14   15 1
    28   15   16 1
    29   15   25 1
    30   15   17 1
    31   17   18 1
    32   17   19 1
    33   17   30 1
    34   19   20 1
    35   19   21 1
    36   19   29 1
    37   21   22 1
    38   21   23 1
    39   21   28 1
    40   23   24 1
    41   23   25 1
    42   23   26 1
    43   26   27 1
    44   26   55 1
    45   26   56 1
    46   27   57 1
    47   28   58 1
    48   29   59 1
    49   30   60 1
    50   31   36 ar
    51   31   32 ar
    52   32   33 ar
    53   32   61 1
    54   33   34 ar
    55   33   40 1
    56   34   35 ar
    57   34   62 1
    58   35   36 ar
    59   35   38 1
    60   36   37 1
    61   37   63 1
    62   38   39 1
    63   39   64 1
    64   39   65 1
    65   39   66 1
    66   40   41 2
    67   40   67 1
    68   41   42 1
    69   41   68 1
    70   42   43 1
    71   42   69 1
    72   42   70 1
    73   43   71 1
@<TRIPOS>MOLECULE
ZINC35464468
   57    58     0     0     0
SMALL
USER_CHARGES

@<TRIPOS>ATOM
      1 C1         -1.1297    1.2083   -0.8027 C.3       1 <0>        -0.1882
      2 C2         -0.9525   -0.3085   -0.8966 C.3       1 <0>         0.1094
      3 H1         -1.8811   -0.7621   -1.2433 H         1 <0>         0.0585
      4 C3          0.1718   -0.6306   -1.8830 C.3       1 <0>        -0.1566
      5 C4          0.2663   -2.1460   -2.0717 C.3       1 <0>         0.1225
      6 H2          0.3593   -2.6281   -1.0986 H         1 <0>         0.1127
      7 C5          1.4921   -2.4783   -2.9248 C.3       1 <0>        -0.1379
      8 H3          2.3813   -2.0438   -2.4679 H         1 <0>         0.0984
      9 C6          1.6548   -3.9970   -3.0141 C.3       1 <0>         0.1643
     10 H4          2.4902   -4.2348   -3.6726 H         1 <0>         0.1158
     11 C7          1.9236   -4.5550   -1.6402 C.2       1 <0>        -0.1647
     12 C8          1.1595   -5.5033   -1.1575 C.2       1 <0>        -0.1579
     13 C9          1.4282   -6.0614    0.2163 C.3       1 <0>        -0.0457
     14 C10         0.1816   -5.9514    1.0559 C.2       1 <0>         0.1406
     15 C11        -0.6453   -7.0063    1.1396 C.2       1 <0>        -0.2251
     16 C12        -1.8657   -6.8858    1.9460 C.ar      1 <0>         0.0489
     17 C13        -2.2415   -5.5854    2.3716 C.ar      1 <0>        -0.2204
     18 C14        -3.3971   -5.4050    3.1340 C.ar      1 <0>         0.2146
     19 C15        -4.1626   -6.5078    3.4730 C.ar      1 <0>        -0.1844
     20 C16        -3.7903   -7.7830    3.0599 C.ar      1 <0>         0.1810
     21 C17        -2.6470   -7.9785    2.2977 C.ar      1 <0>        -0.0851
     22 Cl1        -2.1971   -9.5761    1.7888 Cl        1 <0>        -0.0354
     23 O1         -4.5554   -8.8498    3.4063 O.3       1 <0>        -0.4815
     24 O2         -3.7655   -4.1632    3.5385 O.3       1 <0>        -0.4784
     25 C18        -1.3633   -4.4795    1.9748 C.2       1 <0>         0.5361
     26 O3         -1.7718   -3.3357    1.8934 O.2       1 <0>        -0.4082
     27 O4         -0.0714   -4.7981    1.7077 O.3       1 <0>        -0.2773
     28 O5          0.4568   -4.5745   -3.5368 O.3       1 <0>        -0.5477
     29 S1          1.2728   -1.7946   -4.5906 S.3       1 <0>        -0.2102
     30 C19         1.8154   -0.0709   -4.4326 C.3       1 <0>        -0.1130
     31 C20         1.6086    0.6530   -5.7645 C.3       1 <0>         0.0558
     32 H5          0.5521    0.6277   -6.0315 H         1 <0>         0.0978
     33 C21         2.0593    2.0850   -5.6332 C.2       1 <0>         0.4772
     34 O6          3.0120    2.4860   -6.2799 O.co2     1 <0>        -0.6800
     35 O7          1.4714    2.8426   -4.8802 O.co2     1 <0>        -0.6902
     36 O8          2.3730    0.0045   -6.7829 O.3       1 <0>        -0.5495
     37 O9         -0.9124   -2.6188   -2.7268 O.3       1 <0>        -0.5580
     38 O10        -0.6198   -0.8299    0.3917 O.3       1 <0>        -0.5605
     39 H6         -0.2012    1.6618   -0.4560 H         1 <0>         0.0627
     40 H7         -1.3835    1.6059   -1.7854 H         1 <0>         0.0694
     41 H8         -1.9308    1.4377   -0.1000 H         1 <0>         0.0545
     42 H9         -0.0396   -0.1575   -2.8420 H         1 <0>         0.0938
     43 H10         1.1170   -0.2535   -1.4924 H         1 <0>         0.0758
     44 H11         2.7461   -4.1732   -1.0537 H         1 <0>         0.1210
     45 H12         0.3370   -5.8851   -1.7440 H         1 <0>         0.1249
     46 H13         1.7187   -7.1086    0.1327 H         1 <0>         0.1122
     47 H14         2.2338   -5.4973    0.6865 H         1 <0>         0.0970
     48 H15        -0.4166   -7.9265    0.6226 H         1 <0>         0.1619
     49 H16        -5.0569   -6.3768    4.0641 H         1 <0>         0.1555
     50 H17        -5.2517   -9.0582    2.7685 H         1 <0>         0.4025
     51 H18        -4.3446   -3.7025    2.9160 H         1 <0>         0.4080
     52 H19        -0.3031   -4.5095   -2.9423 H         1 <0>         0.3807
     53 H20         1.2323    0.4237   -3.6558 H         1 <0>         0.0985
     54 H21         2.8719   -0.0456   -4.1655 H         1 <0>         0.0738
     55 H22         3.3245   -0.0105   -6.6110 H         1 <0>         0.3701
     56 H23        -1.0591   -2.2311   -3.6005 H         1 <0>         0.3850
     57 H24        -1.2895   -0.6622    1.0688 H         1 <0>         0.3752
@<TRIPOS>BOND
     1    1    2 1
     2    1   39 1
     3    1   40 1
     4    1   41 1
     5    2    3 1
     6    2    4 1
     7    2   38 1
     8    4    5 1
     9    4   42 1
    10    4   43 1
    11    5    6 1
    12    5    7 1
    13    5   37 1
    14    7    8 1
    15    7    9 1
    16    7   29 1
    17    9   10 1
    18    9   11 1
    19    9   28 1
    20   11   12 2
    21   11   44 1
    22   12   13 1
    23   12   45 1
    24   13   14 1
    25   13   46 1
    26   13   47 1
    27   14   27 1
    28   14   15 2
    29   15   16 1
    30   15   48 1
    31   16   21 ar
    32   16   17 ar
    33   17   18 ar
    34   17   25 1
    35   18   19 ar
    36   18   24 1
    37   19   20 ar
    38   19   49 1
    39   20   21 ar
    40   20   23 1
    41   21   22 1
    42   23   50 1
    43   24   51 1
    44   25   26 2
    45   25   27 1
    46   28   52 1
    47   29   30 1
    48   30   31 1
    49   30   53 1
    50   30   54 1
    51   31   32 1
    52   31   33 1
    53   31   36 1
    54   33   34 2
    55   33   35 1
    56   36   55 1
    57   37   56 1
    58   38   57 1
@<TRIPOS>MOLECULE
ZINC12412185
   69    68     0     0     0
SMALL
USER_CHARGES

@<TRIPOS>ATOM
      1 C1          0.2795   -0.1279   -2.3219 C.3       1 <0>        -0.1517
      2 C2         -0.0686   -0.6132   -0.9133 C.3       1 <0>         0.0631
      3 O1         -1.2876   -1.3578   -0.9538 O.3       1 <0>        -0.3563
      4 C3         -1.6794   -1.9542    0.1912 C.2       1 <0>         0.5796
      5 O2         -0.9630   -1.9144    1.1739 O.2       1 <0>        -0.5028
      6 C4         -2.9260   -2.6274    0.2495 C.2       1 <0>        -0.4190
      7 C5         -3.0236   -3.9581   -0.1750 C.2       1 <0>         0.5991
      8 N1         -1.8948   -4.6670   -0.4601 N.pl3     1 <0>        -0.5695
      9 N2         -0.6346   -4.1041   -0.2196 N.2       1 <0>        -0.2159
     10 C6          0.4242   -4.7291   -0.5760 C.2       1 <0>         0.1208
     11 C7          1.7804   -4.1850   -0.2075 C.3       1 <0>        -0.0080
     12 C8          2.4618   -5.1358    0.7426 C.2       1 <0>         0.1429
     13 N3          3.5305   -5.7425    0.3842 N.2       1 <0>        -0.2750
     14 N4          4.1640   -6.6264    1.2675 N.pl3     1 <0>        -0.5467
     15 C9          5.3020   -7.2724    0.8859 C.2       1 <0>         0.6398
     16 C10         5.9190   -8.1777    1.7578 C.2       1 <0>        -0.4553
     17 C11         5.5527   -8.2049    3.1274 C.2       1 <0>         0.5480
     18 O3          4.7853   -7.3700    3.5686 O.2       1 <0>        -0.5725
     19 O4          6.0551   -9.1564    3.9413 O.3       1 <0>        -0.3270
     20 C12         5.6431   -9.1236    5.3093 C.3       1 <0>         0.0621
     21 C13         6.3108  -10.2706    6.0706 C.3       1 <0>        -0.1500
     22 C14         6.9101   -9.0674    1.2712 C.2       1 <0>         0.5497
     23 O5          7.1459   -9.1222    0.0788 O.2       1 <0>        -0.5652
     24 O6          7.5917   -9.8532    2.1305 O.3       1 <0>        -0.3291
     25 C15         8.5757  -10.7254    1.5709 C.3       1 <0>         0.0627
     26 C16         9.2387  -11.5310    2.6901 C.3       1 <0>        -0.1500
     27 N5          5.8392   -7.0372   -0.3443 N.pl3     1 <0>        -0.7914
     28 C17         1.8851   -5.3722    2.1147 C.3       1 <0>        -0.1721
     29 C18         0.3144   -6.0089   -1.3641 C.3       1 <0>        -0.1611
     30 N6         -4.2471   -4.5446   -0.3030 N.pl3     1 <0>        -0.8119
     31 C19        -4.0739   -1.9530    0.7376 C.2       1 <0>         0.5497
     32 O7         -5.1135   -2.5631    0.9031 O.2       1 <0>        -0.5612
     33 O8         -4.0132   -0.6348    1.0184 O.3       1 <0>        -0.3518
     34 C20        -5.2073   -0.0198    1.5065 C.3       1 <0>         0.0656
     35 C21        -4.9465    1.4652    1.7667 C.3       1 <0>        -0.1529
     36 H1          1.2093    0.4401   -2.2910 H         1 <0>         0.0757
     37 H2          0.3999   -0.9864   -2.9826 H         1 <0>         0.0610
     38 H3         -0.5227    0.5085   -2.6955 H         1 <0>         0.0646
     39 H4          0.7336   -1.2496   -0.5397 H         1 <0>         0.0618
     40 H5         -0.1891    0.2453   -0.2526 H         1 <0>         0.0623
     41 H6         -1.9640   -5.5613   -0.8294 H         1 <0>         0.3965
     42 H7          2.3849   -4.0757   -1.1079 H         1 <0>         0.1184
     43 H8          1.6639   -3.2132    0.2721 H         1 <0>         0.1226
     44 H9          3.7929   -6.7786    2.1507 H         1 <0>         0.4282
     45 H10         5.9364   -8.1728    5.7544 H         1 <0>         0.0640
     46 H11         4.5600   -9.2323    5.3653 H         1 <0>         0.0622
     47 H12         5.9966  -10.2456    7.1140 H         1 <0>         0.0758
     48 H13         6.0176  -11.2214    5.6255 H         1 <0>         0.0650
     49 H14         7.3940  -10.1619    6.0146 H         1 <0>         0.0666
     50 H15         8.0988  -11.4067    0.8663 H         1 <0>         0.0634
     51 H16         9.3309  -10.1354    1.0515 H         1 <0>         0.0632
     52 H17         9.7155  -10.8497    3.3947 H         1 <0>         0.0651
     53 H18         8.4835  -12.1209    3.2095 H         1 <0>         0.0658
     54 H19         9.9892  -12.1962    2.2633 H         1 <0>         0.0757
     55 H20         5.4224   -6.3961   -0.9410 H         1 <0>         0.4146
     56 H21         6.6384   -7.5110   -0.6232 H         1 <0>         0.4353
     57 H22         1.1819   -6.2041    2.0748 H         1 <0>         0.0871
     58 H23         2.6895   -5.6095    2.8109 H         1 <0>         0.0819
     59 H24         1.3669   -4.4741    2.4507 H         1 <0>         0.0998
     60 H25         0.3104   -5.7802   -2.4298 H         1 <0>         0.0973
     61 H26         1.1642   -6.6515   -1.1336 H         1 <0>         0.0893
     62 H27        -0.6106   -6.5208   -1.0988 H         1 <0>         0.0673
     63 H28        -5.0518   -4.0064   -0.2415 H         1 <0>         0.4398
     64 H29        -4.3133   -5.5002   -0.4557 H         1 <0>         0.4024
     65 H30        -5.9994   -0.1252    0.7652 H         1 <0>         0.0654
     66 H31        -5.5117   -0.5034    2.4348 H         1 <0>         0.0654
     67 H32        -4.1544    1.5705    2.5080 H         1 <0>         0.0658
     68 H33        -4.6421    1.9487    0.8385 H         1 <0>         0.0655
     69 H34        -5.8573    1.9342    2.1390 H         1 <0>         0.0784
@<TRIPOS>BOND
     1    1    2 1
     2    1   36 1
     3    1   37 1
     4    1   38 1
     5    2    3 1
     6    2   39 1
     7    2   40 1
     8    3    4 1
     9    4    5 2
    10    4    6 1
    11    6    7 2
    12    6   31 1
    13    7    8 1
    14    7   30 1
    15    8    9 1
    16    8   41 1
    17    9   10 2
    18   10   11 1
    19   10   29 1
    20   11   12 1
    21   11   42 1
    22   11   43 1
    23   12   13 2
    24   12   28 1
    25   13   14 1
    26   14   15 1
    27   14   44 1
    28   15   16 2
    29   15   27 1
    30   16   17 1
    31   16   22 1
    32   17   18 2
    33   17   19 1
    34   19   20 1
    35   20   21 1
    36   20   45 1
    37   20   46 1
    38   21   47 1
    39   21   48 1
    40   21   49 1
    41   22   23 2
    42   22   24 1
    43   24   25 1
    44   25   26 1
    45   25   50 1
    46   25   51 1
    47   26   52 1
    48   26   53 1
    49   26   54 1
    50   27   55 1
    51   27   56 1
    52   28   57 1
    53   28   58 1
    54   28   59 1
    55   29   60 1
    56   29   61 1
    57   29   62 1
    58   30   63 1
    59   30   64 1
    60   31   32 2
    61   31   33 1
    62   33   34 1
    63   34   35 1
    64   34   65 1
    65   34   66 1
    66   35   67 1
    67   35   68 1
    68   35   69 1
@<TRIPOS>MOLECULE
ZINC65739936
   60    61     0     0     0
SMALL
USER_CHARGES

@<TRIPOS>ATOM
      1 C1         -1.2099    1.3810   -1.2576 C.ar      1 <0>        -0.0778
      2 C2         -1.1299    2.0737   -2.4479 C.ar      1 <0>        -0.0738
      3 C3         -1.0212    1.3883   -3.6448 C.ar      1 <0>        -0.1581
      4 C4         -0.9915    0.0051   -3.6570 C.ar      1 <0>        -0.0702
      5 C5         -1.0702   -0.7001   -2.4739 C.ar      1 <0>        -0.0840
      6 C6         -1.1805   -0.0148   -1.2626 C.ar      1 <0>        -0.0332
      7 C7         -1.2653   -0.7629    0.0075 C.2       1 <0>         0.2002
      8 N1         -1.3670   -0.1252    1.1281 N.2       1 <0>        -0.3258
      9 O1         -1.5601   -0.8404    2.3348 O.3       1 <0>        -0.2551
     10 C8         -1.6551   -0.0100    3.4938 C.3       1 <0>         0.0420
     11 C9         -1.8617   -0.8845    4.7322 C.3       1 <0>        -0.0006
     12 N2         -0.6711   -1.7175    4.9475 N.4       1 <0>        -0.6376
     13 C10        -1.2332   -2.2695   -0.0018 C.3       1 <0>        -0.1147
     14 C11        -2.6603   -2.8093   -0.1161 C.3       1 <0>        -0.1106
     15 C12        -2.6391   -4.3350   -0.0033 C.3       1 <0>        -0.1122
     16 C13        -4.0661   -4.8747   -0.1176 C.3       1 <0>         0.0622
     17 O2         -4.0463   -6.2997   -0.0123 O.3       1 <0>        -0.4032
     18 C14        -5.3361   -6.9075   -0.1069 C.3       1 <0>         0.2061
     19 H1         -5.8203   -6.5909   -1.0307 H         1 <0>         0.0992
     20 C15        -5.1839   -8.4309   -0.1064 C.3       1 <0>         0.1076
     21 H2         -4.5396   -8.7328   -0.9321 H         1 <0>         0.0670
     22 C16        -4.5578   -8.8732    1.2197 C.3       1 <0>         0.1236
     23 H3         -3.5578   -8.4491    1.3102 H         1 <0>         0.0798
     24 C17        -5.4317   -8.3759    2.3753 C.3       1 <0>         0.0673
     25 H4         -4.9646   -8.6386    3.3244 H         1 <0>         0.0587
     26 C18        -5.5743   -6.8547    2.2789 C.3       1 <0>        -0.0006
     27 H5         -4.5936   -6.3904    2.3823 H         1 <0>         0.0551
     28 O3         -6.1337   -6.5092    1.0099 O.3       1 <0>        -0.3389
     29 C19        -6.4810   -6.3643    3.3783 C.2       1 <0>         0.5022
     30 O4         -6.1420   -6.4775    4.5440 O.co2     1 <0>        -0.6945
     31 O5         -7.5534   -5.8544    3.1020 O.co2     1 <0>        -0.6610
     32 O6         -6.7224   -8.9839    2.2938 O.3       1 <0>        -0.5272
     33 O7         -4.4775  -10.2994    1.2582 O.3       1 <0>        -0.5467
     34 O8         -6.4683   -9.0391   -0.2559 O.3       1 <0>        -0.5068
     35 C20        -0.9352    2.1518   -4.9412 C.3       1 <0>         0.5060
     36 F1          0.4060    2.4158   -5.2389 F         1 <0>        -0.1732
     37 F2         -1.4998    1.3897   -5.9696 F         1 <0>        -0.1726
     38 F3         -1.6320    3.3587   -4.8187 F         1 <0>        -0.1737
     39 H6         -1.2906    1.9173   -0.3236 H         1 <0>         0.1444
     40 H7         -1.1525    3.1534   -2.4454 H         1 <0>         0.1446
     41 H8         -0.9068   -0.5238   -4.5948 H         1 <0>         0.1474
     42 H9         -1.0473   -1.7798   -2.4849 H         1 <0>         0.1473
     43 H10        -0.7362    0.5656    3.6047 H         1 <0>         0.0809
     44 H11        -2.4994    0.6708    3.3848 H         1 <0>         0.1061
     45 H12        -2.0228   -0.2490    5.6030 H         1 <0>         0.1542
     46 H13        -2.7312   -1.5248    4.5839 H         1 <0>         0.1480
     47 H14        -0.8073   -2.2942    5.7642 H         1 <0>         0.4414
     48 H15        -0.5219   -2.3058    4.1414 H         1 <0>         0.4399
     49 H16        -0.6449   -2.6152   -0.8518 H         1 <0>         0.0939
     50 H17        -0.7818   -2.6291    0.9229 H         1 <0>         0.0851
     51 H18        -3.2711   -2.3941    0.6855 H         1 <0>         0.0699
     52 H19        -3.0813   -2.5220   -1.0797 H         1 <0>         0.0746
     53 H20        -2.0283   -4.7501   -0.8050 H         1 <0>         0.0737
     54 H21        -2.2181   -4.6222    0.9602 H         1 <0>         0.0678
     55 H22        -4.6769   -4.4596    0.6840 H         1 <0>         0.0589
     56 H23        -4.4871   -4.5875   -1.0812 H         1 <0>         0.0496
     57 H24        -7.3294   -8.7137    2.9964 H         1 <0>         0.3744
     58 H25        -4.0899  -10.6497    2.0719 H         1 <0>         0.3744
     59 H26        -6.9246   -8.7987   -1.0739 H         1 <0>         0.3662
     60 H27         0.1338   -1.1248    5.0848 H         1 <0>         0.4323
@<TRIPOS>BOND
     1    1    6 ar
     2    1    2 ar
     3    1   39 1
     4    2    3 ar
     5    2   40 1
     6    3    4 ar
     7    3   35 1
     8    4    5 ar
     9    4   41 1
    10    5    6 ar
    11    5   42 1
    12    6    7 1
    13    7    8 2
    14    7   13 1
    15    8    9 1
    16    9   10 1
    17   10   11 1
    18   10   43 1
    19   10   44 1
    20   11   12 1
    21   11   45 1
    22   11   46 1
    23   12   47 1
    24   12   48 1
    25   12   60 1
    26   13   14 1
    27   13   49 1
    28   13   50 1
    29   14   15 1
    30   14   51 1
    31   14   52 1
    32   15   16 1
    33   15   53 1
    34   15   54 1
    35   16   17 1
    36   16   55 1
    37   16   56 1
    38   17   18 1
    39   18   19 1
    40   18   28 1
    41   18   20 1
    42   20   21 1
    43   20   22 1
    44   20   34 1
    45   22   23 1
    46   22   24 1
    47   22   33 1
    48   24   25 1
    49   24   26 1
    50   24   32 1
    51   26   27 1
    52   26   28 1
    53   26   29 1
    54   29   30 2
    55   29   31 1
    56   32   57 1
    57   33   58 1
    58   34   59 1
    59   35   36 1
    60   35   37 1
    61   35   38 1
@<TRIPOS>MOLECULE
ZINC12503246
   51    52     0     0     0
SMALL
USER_CHARGES
N-(2-chlorophenyl)-4-[N'-[[2-(2-methylphenoxy)acetyl]carbamothioyl]hydrazino]-4-oxo-butanamide
@<TRIPOS>ATOM
      1 C1         12.5425   -3.7285   -0.0553 C.3       1 <0>        -0.1109
      2 C2         11.3582   -4.6604   -0.0611 C.ar      1 <0>        -0.1059
      3 C3         11.5546   -6.0280   -0.0733 C.ar      1 <0>        -0.0827
      4 C4         10.4686   -6.8834   -0.0781 C.ar      1 <0>        -0.1487
      5 C5          9.1834   -6.3730   -0.0704 C.ar      1 <0>        -0.0868
      6 C6          8.9817   -5.0067   -0.0529 C.ar      1 <0>        -0.2064
      7 C7         10.0700   -4.1459   -0.0538 C.ar      1 <0>         0.1221
      8 O1          9.8743   -2.8012   -0.0418 O.3       1 <0>        -0.2842
      9 C8          8.5208   -2.3426   -0.0348 C.3       1 <0>         0.0469
     10 C9          8.5010   -0.8358   -0.0219 C.2       1 <0>         0.4886
     11 O2          9.5429   -0.2158   -0.0190 O.2       1 <0>        -0.3749
     12 N1          7.3250   -0.1774   -0.0136 N.am      1 <0>        -0.6446
     13 C10         7.3073    1.1702   -0.0020 C.2       1 <0>         0.5159
     14 S1          8.7785    2.0456    0.0021 S.2       1 <0>        -0.4523
     15 N2          6.1313    1.8286    0.0063 N.pl3     1 <0>        -0.4574
     16 N3          4.9274    1.1122    0.0030 N.am      1 <0>        -0.5530
     17 C11         3.7514    1.7706    0.0113 C.2       1 <0>         0.5224
     18 O3          3.7354    2.9833    0.0217 O.2       1 <0>        -0.5152
     19 C12         2.4563    1.0000    0.0077 C.3       1 <0>        -0.1154
     20 C13         1.2804    1.9788    0.0187 C.3       1 <0>        -0.1268
     21 C14        -0.0146    1.2082    0.0151 C.2       1 <0>         0.5199
     22 O4          0.0013   -0.0046    0.0047 O.2       1 <0>        -0.5195
     23 N4         -1.1906    1.8666    0.0178 N.am      1 <0>        -0.6699
     24 C15        -2.3915    1.1549   -0.0860 C.ar      1 <0>         0.1518
     25 C16        -2.5101   -0.0988    0.4989 C.ar      1 <0>        -0.1100
     26 C17        -3.6979   -0.7965    0.3989 C.ar      1 <0>        -0.0963
     27 C18        -4.7656   -0.2525   -0.2915 C.ar      1 <0>        -0.1196
     28 C19        -4.6499    0.9932   -0.8798 C.ar      1 <0>        -0.0921
     29 C20        -3.4656    1.6990   -0.7795 C.ar      1 <0>        -0.0638
     30 Cl1        -3.3203    3.2627   -1.5193 Cl        1 <0>        -0.0626
     31 H1         12.8302   -3.5130    0.9737 H         1 <0>         0.0709
     32 H2         13.3773   -4.1986   -0.5752 H         1 <0>         0.0665
     33 H3         12.2766   -2.7999   -0.5603 H         1 <0>         0.0745
     34 H4         12.5573   -6.4290   -0.0787 H         1 <0>         0.1316
     35 H5         10.6242   -7.9521   -0.0877 H         1 <0>         0.1258
     36 H6          8.3366   -7.0433   -0.0738 H         1 <0>         0.1261
     37 H7          7.9778   -4.6086   -0.0423 H         1 <0>         0.1265
     38 H8          8.0139   -2.7203    0.8532 H         1 <0>         0.0994
     39 H9          8.0098   -2.7051   -0.9267 H         1 <0>         0.0993
     40 H10         6.4915   -0.6734   -0.0159 H         1 <0>         0.4041
     41 H11         6.1186    2.7985    0.0146 H         1 <0>         0.4589
     42 H12         4.9401    0.1423   -0.0054 H         1 <0>         0.4209
     43 H13         2.4089    0.3651    0.8924 H         1 <0>         0.1148
     44 H14         2.4048    0.3803   -0.8875 H         1 <0>         0.1148
     45 H15         1.3279    2.6137   -0.8660 H         1 <0>         0.1123
     46 H16         1.3320    2.5985    0.9139 H         1 <0>         0.1118
     47 H17        -1.2048    2.8337    0.0917 H         1 <0>         0.4161
     48 H18        -1.6755   -0.5265    1.0345 H         1 <0>         0.1489
     49 H19        -3.7915   -1.7702    0.8567 H         1 <0>         0.1343
     50 H20        -5.6918   -0.8023   -0.3715 H         1 <0>         0.1352
     51 H21        -5.4855    1.4152   -1.4186 H         1 <0>         0.1387
@<TRIPOS>BOND
     1    1    2 1
     2    1   31 1
     3    1   32 1
     4    1   33 1
     5    2    7 ar
     6    2    3 ar
     7    3    4 ar
     8    3   34 1
     9    4    5 ar
    10    4   35 1
    11    5    6 ar
    12    5   36 1
    13    6    7 ar
    14    6   37 1
    15    7    8 1
    16    8    9 1
    17    9   10 1
    18    9   38 1
    19    9   39 1
    20   10   11 2
    21   10   12 am
    22   12   13 1
    23   12   40 1
    24   13   14 2
    25   13   15 1
    26   15   16 1
    27   15   41 1
    28   16   17 am
    29   16   42 1
    30   17   18 2
    31   17   19 1
    32   19   20 1
    33   19   43 1
    34   19   44 1
    35   20   21 1
    36   20   45 1
    37   20   46 1
    38   21   22 2
    39   21   23 am
    40   23   24 1
    41   23   47 1
    42   24   29 ar
    43   24   25 ar
    44   25   26 ar
    45   25   48 1
    46   26   27 ar
    47   26   49 1
    48   27   28 ar
    49   27   50 1
    50   28   29 ar
    51   28   51 1
    52   29   30 1
@<TRIPOS>MOLECULE
ZINC15328563
   62    62     0     0     0
SMALL
USER_CHARGES
N-(tert-butylcarbamoyl)-2-[[5-(diethylsulfamoyl)-2-ethylamino-phenyl]amino]acetamide
@<TRIPOS>ATOM
      1 C1         -0.0187    1.5258    0.0104 C.3       1 <0>        -0.1675
      2 C2          0.0021   -0.0041    0.0020 C.3       1 <0>         0.1187
      3 N1         -1.3723   -0.5112    0.0124 N.pl3     1 <0>        -0.7430
      4 C3         -1.6095   -1.8911    0.0073 C.ar      1 <0>         0.2158
      5 C4         -0.5450   -2.7795   -0.0077 C.ar      1 <0>        -0.1806
      6 C5         -0.7814   -4.1418   -0.0128 C.ar      1 <0>        -0.0140
      7 C6         -2.0777   -4.6225   -0.0030 C.ar      1 <0>        -0.6865
      8 C7         -3.1451   -3.7438    0.0114 C.ar      1 <0>        -0.0626
      9 C8         -2.9171   -2.3761    0.0229 C.ar      1 <0>         0.1316
     10 N2         -3.9964   -1.4844    0.0439 N.pl3     1 <0>        -0.7436
     11 C9         -5.3691   -1.9961    0.0603 C.3       1 <0>         0.1101
     12 C10        -6.3359   -0.8403    0.0813 C.2       1 <0>         0.5168
     13 O1         -5.9195    0.2983    0.0825 O.2       1 <0>        -0.4625
     14 N3         -7.6634   -1.0724    0.0989 N.am      1 <0>        -0.6897
     15 C11        -8.5280   -0.0387    0.1177 C.2       1 <0>         0.6954
     16 O2         -8.1106    1.1028    0.1188 O.2       1 <0>        -0.5222
     17 N4         -9.8555   -0.2707    0.1352 N.am      1 <0>        -0.7296
     18 C12       -10.7953    0.8529    0.1556 C.3       1 <0>         0.1840
     19 C13       -10.5872    1.7146   -1.0913 C.3       1 <0>        -0.1672
     20 C14       -12.2289    0.3185    0.1728 C.3       1 <0>        -0.1558
     21 C15       -10.5515    1.6990    1.4068 C.3       1 <0>        -0.1670
     22 S1         -2.3703   -6.3600   -0.0096 S.o2      1 <0>         2.6923
     23 O3         -3.6710   -6.5508   -0.5491 O.2       1 <0>        -0.9602
     24 O4         -1.2150   -6.9643   -0.5747 O.2       1 <0>        -0.9598
     25 N5         -2.4365   -6.8514    1.5704 N.pl3     1 <0>        -0.9976
     26 C16        -3.7169   -6.8581    2.2824 C.3       1 <0>         0.1220
     27 C17        -4.3370   -8.2546    2.2035 C.3       1 <0>        -0.1756
     28 C18        -1.2148   -7.2794    2.2563 C.3       1 <0>         0.1095
     29 C19        -0.6238   -6.0988    3.0295 C.3       1 <0>        -0.1777
     30 H1          1.0039    1.9031    0.0027 H         1 <0>         0.0764
     31 H2         -0.5459    1.8868   -0.8726 H         1 <0>         0.0627
     32 H3         -0.5289    1.8773    0.9072 H         1 <0>         0.0624
     33 H4          0.5123   -0.3556   -0.8948 H         1 <0>         0.0641
     34 H5          0.5293   -0.3651    0.8851 H         1 <0>         0.0638
     35 H6         -2.1181    0.1091    0.0229 H         1 <0>         0.3988
     36 H7          0.4689   -2.4074   -0.0150 H         1 <0>         0.1323
     37 H8          0.0488   -4.8324   -0.0240 H         1 <0>         0.1360
     38 H9         -4.1564   -4.1227    0.0190 H         1 <0>         0.1350
     39 H10        -3.8354   -0.5279    0.0476 H         1 <0>         0.4059
     40 H11        -5.5428   -2.5989   -0.8311 H         1 <0>         0.1001
     41 H12        -5.5174   -2.6101    0.9487 H         1 <0>         0.0979
     42 H13        -7.9965   -1.9834    0.0979 H         1 <0>         0.4125
     43 H14       -10.1887   -1.1817    0.1342 H         1 <0>         0.3982
     44 H15       -10.7609    1.1118   -1.9827 H         1 <0>         0.0548
     45 H16       -11.2864    2.5506   -1.0761 H         1 <0>         0.0665
     46 H17        -9.5659    2.0954   -1.1036 H         1 <0>         0.0790
     47 H18       -12.3772   -0.2955    1.0611 H         1 <0>         0.0637
     48 H19       -12.9281    1.1545    0.1880 H         1 <0>         0.0779
     49 H20       -12.4026   -0.2843   -0.7186 H         1 <0>         0.0638
     50 H21        -9.5302    2.0797    1.3946 H         1 <0>         0.0790
     51 H22       -11.2508    2.5350    1.4220 H         1 <0>         0.0665
     52 H23       -10.6998    1.0851    2.2952 H         1 <0>         0.0546
     53 H24        -3.5534   -6.5917    3.3266 H         1 <0>         0.0791
     54 H25        -4.3912   -6.1347    1.8241 H         1 <0>         0.0791
     55 H26        -3.6626   -8.9780    2.6617 H         1 <0>         0.0596
     56 H27        -5.2896   -8.2596    2.7332 H         1 <0>         0.0681
     57 H28        -4.5005   -8.5211    1.1593 H         1 <0>         0.0638
     58 H29        -1.4511   -8.0863    2.9499 H         1 <0>         0.0835
     59 H30        -0.4904   -7.6319    1.5220 H         1 <0>         0.0935
     60 H31         0.2852   -6.4173    3.5398 H         1 <0>         0.0690
     61 H32        -0.3874   -5.2919    2.3359 H         1 <0>         0.0591
     62 H33        -1.3481   -5.7463    3.7638 H         1 <0>         0.0597
@<TRIPOS>BOND
     1    1    2 1
     2    1   30 1
     3    1   31 1
     4    1   32 1
     5    2    3 1
     6    2   33 1
     7    2   34 1
     8    3    4 1
     9    3   35 1
    10    4    9 ar
    11    4    5 ar
    12    5    6 ar
    13    5   36 1
    14    6    7 ar
    15    6   37 1
    16    7    8 ar
    17    7   22 1
    18    8    9 ar
    19    8   38 1
    20    9   10 1
    21   10   11 1
    22   10   39 1
    23   11   12 1
    24   11   40 1
    25   11   41 1
    26   12   13 2
    27   12   14 am
    28   14   15 am
    29   14   42 1
    30   15   16 2
    31   15   17 am
    32   17   18 1
    33   17   43 1
    34   18   19 1
    35   18   20 1
    36   18   21 1
    37   19   44 1
    38   19   45 1
    39   19   46 1
    40   20   47 1
    41   20   48 1
    42   20   49 1
    43   21   50 1
    44   21   51 1
    45   21   52 1
    46   22   23 2
    47   22   24 2
    48   22   25 1
    49   25   26 1
    50   25   28 1
    51   26   27 1
    52   26   53 1
    53   26   54 1
    54   27   55 1
    55   27   56 1
    56   27   57 1
    57   28   29 1
    58   28   58 1
    59   28   59 1
    60   29   60 1
    61   29   61 1
    62   29   62 1
@<TRIPOS>MOLECULE
ZINC24208179
   53    55     0     0     0
SMALL
USER_CHARGES
2-[[2-[[5-(2-oxo-2-propylamino-ethyl)sulfanyl-1,3,4-thiadiazol-2-yl]sulfanyl]acetyl]amino]-4,5,6,7-tetrahydrobenzothiophene-3-carboxamide
@<TRIPOS>ATOM
      1 C1        -13.8018    7.6146    0.1136 C.3       1 <0>        -0.1533
      2 C2        -12.5840    6.6885    0.1021 C.3       1 <0>        -0.1358
      3 C3        -11.3048    7.5280    0.1003 C.3       1 <0>         0.1190
      4 N1        -10.1388    6.6412    0.0892 N.am      1 <0>        -0.7330
      5 C4         -8.8958    7.1624    0.0858 C.2       1 <0>         0.5354
      6 O1         -8.7427    8.3654    0.0919 O.2       1 <0>        -0.5262
      7 C5         -7.6963    6.2502    0.0744 C.3       1 <0>        -0.1642
      8 S1         -6.1798    7.2455    0.0723 S.3       1 <0>         0.1426
      9 C6         -4.8854    6.0501    0.0588 C.2       1 <0>         0.0369
     10 N2         -4.9637    4.7332    0.0521 N.2       1 <0>        -0.3056
     11 N3         -3.8131    3.9792    0.0422 N.2       1 <0>        -0.3029
     12 C7         -2.6369    4.5766    0.0394 C.2       1 <0>         0.0312
     13 S2         -3.1163    6.2973    0.0584 S.3       1 <0>         0.0843
     14 S3         -1.0241    3.8670    0.0279 S.3       1 <0>         0.1487
     15 C8         -1.3314    2.0792    0.0197 C.3       1 <0>        -0.1624
     16 C9         -0.0162    1.3436    0.0094 C.2       1 <0>         0.5344
     17 O2          1.0257    1.9642    0.0028 O.2       1 <0>        -0.4859
     18 N4          0.0021   -0.0041    0.0020 N.am      1 <0>        -0.6255
     19 C10         1.2122   -0.6810   -0.0132 C.2       1 <0>         0.0730
     20 C11         1.4339   -2.0508   -0.0170 C.2       1 <0>        -0.2209
     21 C12         2.8130   -2.5078   -0.0373 C.2       1 <0>        -0.0675
     22 C13         3.7434   -1.5287   -0.0405 C.2       1 <0>        -0.2054
     23 S4          2.8145   -0.0217   -0.0243 S.3       1 <0>         0.2244
     24 C14         5.2315   -1.6968   -0.0539 C.3       1 <0>        -0.0385
     25 C15         5.5572   -3.1517    0.3142 C.3       1 <0>        -0.1139
     26 C16         4.6710   -4.0817   -0.5194 C.3       1 <0>        -0.1200
     27 C17         3.2192   -3.9764   -0.0491 C.3       1 <0>        -0.0612
     28 C18         0.3179   -3.0017   -0.0050 C.2       1 <0>         0.5840
     29 O3         -0.1572   -3.3957   -1.0540 O.2       1 <0>        -0.5424
     30 N5         -0.1819   -3.4394    1.1677 N.am      1 <0>        -0.8704
     31 H1        -14.7214    7.0110    0.1149 H         1 <0>         0.0623
     32 H2        -13.7843    8.2544   -0.7810 H         1 <0>         0.0592
     33 H3        -13.7751    8.2442    1.0152 H         1 <0>         0.0591
     34 H4        -12.6015    6.0487    0.9967 H         1 <0>         0.0705
     35 H5        -12.6106    6.0589   -0.7995 H         1 <0>         0.0705
     36 H6        -11.2874    8.1678   -0.7943 H         1 <0>         0.0703
     37 H7        -11.2781    8.1576    1.0019 H         1 <0>         0.0703
     38 H8        -10.2777    5.5500    0.0836 H         1 <0>         0.4268
     39 H9         -7.7137    5.6104    0.9690 H         1 <0>         0.1304
     40 H10        -7.7230    5.6206   -0.8272 H         1 <0>         0.1305
     41 H11        -1.9002    1.8008    0.9191 H         1 <0>         0.1380
     42 H12        -1.9089    1.8105   -0.8771 H         1 <0>         0.1386
     43 H13        -0.9429   -0.5670    0.0080 H         1 <0>         0.4494
     44 H14         5.6174   -1.4668   -1.0580 H         1 <0>         0.0836
     45 H15         5.6844   -1.0125    0.6786 H         1 <0>         0.0821
     46 H16         6.6167   -3.3557    0.1002 H         1 <0>         0.0748
     47 H17         5.3620   -3.3116    1.3849 H         1 <0>         0.0685
     48 H18         4.7311   -3.7929   -1.5791 H         1 <0>         0.0680
     49 H19         5.0162   -5.1195   -0.4021 H         1 <0>         0.0710
     50 H20         3.1247   -4.3911    0.9653 H         1 <0>         0.0765
     51 H21         2.5636   -4.5327   -0.7352 H         1 <0>         0.0752
     52 H22        -1.0192   -4.1528    1.1767 H         1 <0>         0.4232
     53 H23         0.2474   -3.0832    2.1158 H         1 <0>         0.4223
@<TRIPOS>BOND
     1    1    2 1
     2    1   31 1
     3    1   32 1
     4    1   33 1
     5    2    3 1
     6    2   34 1
     7    2   35 1
     8    3    4 1
     9    3   36 1
    10    3   37 1
    11    4    5 am
    12    4   38 1
    13    5    6 2
    14    5    7 1
    15    7    8 1
    16    7   39 1
    17    7   40 1
    18    8    9 1
    19    9   13 1
    20    9   10 2
    21   10   11 1
    22   11   12 2
    23   12   13 1
    24   12   14 1
    25   14   15 1
    26   15   16 1
    27   15   41 1
    28   15   42 1
    29   16   17 2
    30   16   18 am
    31   18   19 1
    32   18   43 1
    33   19   23 1
    34   19   20 2
    35   20   21 1
    36   20   28 1
    37   21   27 1
    38   21   22 2
    39   22   23 1
    40   22   24 1
    41   24   25 1
    42   24   44 1
    43   24   45 1
    44   25   26 1
    45   25   46 1
    46   25   47 1
    47   26   27 1
    48   26   48 1
    49   26   49 1
    50   27   50 1
    51   27   51 1
    52   28   29 2
    53   28   30 am
    54   30   52 1
    55   30   53 1
@<TRIPOS>MOLECULE
ZINC27650150
   60    61     0     0     0
SMALL
USER_CHARGES

@<TRIPOS>ATOM
      1 C1          0.0211    1.4643   -0.4496 C.3       1 <0>        -0.1487
      2 C2          0.0242   -0.0416   -0.1793 C.3       1 <0>         0.0635
      3 O1         -1.3181   -0.5316   -0.1976 O.3       1 <0>        -0.3513
      4 C3         -1.4914   -1.8493    0.0250 C.2       1 <0>         0.4643
      5 C4         -2.7596   -2.3876    0.0213 C.2       1 <0>        -0.3781
      6 C5         -2.9936   -3.8664    0.2745 C.3       1 <0>         0.1171
      7 H1         -2.5806   -4.1140    1.2524 H         1 <0>         0.0613
      8 C6         -4.4408   -4.3224    0.2417 C.2       1 <0>        -0.3475
      9 C7         -5.3951   -3.3786   -0.0090 C.2       1 <0>         0.2631
     10 N1         -5.0970   -2.1055   -0.2192 N.2       1 <0>        -0.6262
     11 C8         -3.8862   -1.5963   -0.2097 C.2       1 <0>         0.2771
     12 C9         -3.7083   -0.1210   -0.4602 C.3       1 <0>         0.1221
     13 O2         -4.9858    0.4841   -0.6696 O.3       1 <0>        -0.3728
     14 C10        -4.9293    1.8903   -0.9174 C.3       1 <0>         0.0220
     15 C11        -6.3462    2.4288   -1.1259 C.3       1 <0>         0.0040
     16 N2         -7.1132    2.2839    0.1186 N.4       1 <0>        -0.4960
     17 C12        -8.4735    2.8009   -0.0817 C.3       1 <0>        -0.0292
     18 C13        -9.2604    2.6523    1.1950 C.2       1 <0>         0.5037
     19 O3         -8.7392    2.1638    2.1751 O.2       1 <0>        -0.5225
     20 N3        -10.5432    3.0622    1.2475 N.am      1 <0>        -0.8300
     21 C14        -6.8411   -3.8013   -0.0484 C.3       1 <0>        -0.1086
     22 C15        -4.7862   -5.6675    0.4609 C.2       1 <0>         0.5211
     23 O4         -5.9578   -5.9895    0.5448 O.2       1 <0>        -0.5539
     24 O5         -3.8187   -6.6026    0.5783 O.3       1 <0>        -0.3455
     25 C16        -4.2417   -7.9495    0.8000 C.3       1 <0>         0.0410
     26 C17        -2.2339   -4.6483   -0.7660 C.ar      1 <0>        -0.0234
     27 C18        -2.5133   -4.4669   -2.1076 C.ar      1 <0>        -0.1008
     28 C19        -1.8166   -5.1839   -3.0620 C.ar      1 <0>        -0.1303
     29 C20        -0.8398   -6.0829   -2.6756 C.ar      1 <0>        -0.1270
     30 C21        -0.5596   -6.2651   -1.3347 C.ar      1 <0>        -0.1236
     31 C22        -1.2528   -5.5434   -0.3790 C.ar      1 <0>         0.0127
     32 Cl1        -0.8967   -5.7669    1.3054 Cl        1 <0>        -0.0717
     33 O6         -0.4243   -2.6405    0.2512 O.3       1 <0>        -0.6139
     34 H2          1.0449    1.8381   -0.4357 H         1 <0>         0.0737
     35 H3         -0.4229    1.6573   -1.4262 H         1 <0>         0.0592
     36 H4         -0.5610    1.9705    0.3205 H         1 <0>         0.0583
     37 H5          0.6062   -0.5478   -0.9495 H         1 <0>         0.0621
     38 H6          0.4681   -0.2345    0.7973 H         1 <0>         0.0621
     39 H7         -3.2257    0.3384    0.4025 H         1 <0>         0.0792
     40 H8         -3.0877    0.0252   -1.3442 H         1 <0>         0.0812
     41 H9         -4.4721    2.3915   -0.0642 H         1 <0>         0.0702
     42 H10        -4.3340    2.0782   -1.8109 H         1 <0>         0.0953
     43 H11        -6.2975    3.4821   -1.4022 H         1 <0>         0.1412
     44 H12        -6.8350    1.8666   -1.9216 H         1 <0>         0.1418
     45 H13        -7.1582    1.3089    0.3743 H         1 <0>         0.4493
     46 H14        -8.4249    3.8542   -0.3580 H         1 <0>         0.1598
     47 H15        -8.9624    2.2387   -0.8773 H         1 <0>         0.1627
     48 H16       -10.9600    3.4529    0.4636 H         1 <0>         0.4118
     49 H17       -11.0497    2.9665    2.0692 H         1 <0>         0.4220
     50 H18        -7.2422   -3.8188    0.9650 H         1 <0>         0.0688
     51 H19        -7.4100   -3.0943   -0.6522 H         1 <0>         0.0491
     52 H20        -6.9168   -4.7966   -0.4863 H         1 <0>         0.0959
     53 H21        -3.3681   -8.5969    0.8755 H         1 <0>         0.0885
     54 H22        -4.8144   -8.0027    1.7259 H         1 <0>         0.0499
     55 H23        -4.8652   -8.2761   -0.0322 H         1 <0>         0.0491
     56 H24        -3.2764   -3.7651   -2.4100 H         1 <0>         0.1128
     57 H25        -2.0355   -5.0422   -4.1100 H         1 <0>         0.1138
     58 H26        -0.2960   -6.6432   -3.4218 H         1 <0>         0.1183
     59 H27         0.2032   -6.9676   -1.0329 H         1 <0>         0.1203
     60 H28        -6.6606    2.8043    0.8551 H         1 <0>         0.4316
@<TRIPOS>BOND
     1    1    2 1
     2    1   34 1
     3    1   35 1
     4    1   36 1
     5    2    3 1
     6    2   37 1
     7    2   38 1
     8    3    4 1
     9    4    5 2
    10    4   33 1
    11    5   11 1
    12    5    6 1
    13    6    7 1
    14    6    8 1
    15    6   26 1
    16    8    9 2
    17    8   22 1
    18    9   10 1
    19    9   21 1
    20   10   11 2
    21   11   12 1
    22   12   13 1
    23   12   39 1
    24   12   40 1
    25   13   14 1
    26   14   15 1
    27   14   41 1
    28   14   42 1
    29   15   16 1
    30   15   43 1
    31   15   44 1
    32   16   17 1
    33   16   45 1
    34   16   60 1
    35   17   18 1
    36   17   46 1
    37   17   47 1
    38   18   19 2
    39   18   20 am
    40   20   48 1
    41   20   49 1
    42   21   50 1
    43   21   51 1
    44   21   52 1
    45   22   23 2
    46   22   24 1
    47   24   25 1
    48   25   53 1
    49   25   54 1
    50   25   55 1
    51   26   31 ar
    52   26   27 ar
    53   27   28 ar
    54   27   56 1
    55   28   29 ar
    56   28   57 1
    57   29   30 ar
    58   29   58 1
    59   30   31 ar
    60   30   59 1
    61   31   32 1
@<TRIPOS>MOLECULE
ZINC59830125
   50    52     0     0     0
SMALL
USER_CHARGES

@<TRIPOS>ATOM
      1 C1         -0.1436    1.2790    0.0031 C.2       1 <0>        -0.1523
      2 C2         -0.1171   -0.0307   -0.0026 C.2       1 <0>        -0.1792
      3 C3          1.2028   -0.7576   -0.0240 C.3       1 <0>         0.1604
      4 N1          1.2642   -1.6917    1.1029 N.pl3     1 <0>        -0.3606
      5 C4          1.5149   -3.0141    1.0192 C.2       1 <0>         0.0921
      6 C5          1.4830   -3.5211    2.3000 C.2       1 <0>        -0.2071
      7 C6          1.2010   -2.4459    3.1697 C.2       1 <0>         0.0899
      8 N2          1.0787   -1.3628    2.4506 N.2       1 <0>        -0.2909
      9 C7          1.7025   -4.9278    2.6901 C.2       1 <0>         0.1519
     10 N3          1.6436   -5.2712    3.9401 N.2       1 <0>        -0.2200
     11 N4          1.8519   -6.6063    4.3103 N.pl3     1 <0>        -0.5464
     12 C8          1.7890   -6.9734    5.6465 C.2       1 <0>         0.5345
     13 N5          1.5385   -6.1734    6.6546 N.2       1 <0>        -0.3187
     14 N6          1.5656   -6.9360    7.8295 N.2       1 <0>        -0.2929
     15 C9          1.8317   -8.1775    7.5009 C.2       1 <0>         0.1498
     16 N7          1.9714   -8.2342    6.1431 N.pl3     1 <0>        -0.3475
     17 N8          2.2476   -9.3536    5.4104 N.3       1 <0>        -0.5941
     18 S1          1.9773   -9.5351    8.6146 S.3       1 <0>         0.0739
     19 C10         1.6770   -8.7993   10.2453 C.3       1 <0>        -0.1430
     20 C11         1.7735   -9.8674   11.3039 C.2       1 <0>         0.5410
     21 O1          2.0205  -11.0125   10.9893 O.2       1 <0>        -0.4950
     22 N9          1.5852   -9.5504   12.6002 N.am      1 <0>        -0.6593
     23 C12         1.5598  -10.5587   13.5708 C.ar      1 <0>         0.1600
     24 C13         1.2130  -11.8560   13.2175 C.ar      1 <0>        -0.0727
     25 C14         1.1892  -12.8489   14.1773 C.ar      1 <0>        -0.1565
     26 C15         1.5099  -12.5526   15.4895 C.ar      1 <0>        -0.0740
     27 C16         1.8557  -11.2622   15.8456 C.ar      1 <0>        -0.0861
     28 C17         1.8871  -10.2649   14.8889 C.ar      1 <0>        -0.0396
     29 Cl1         2.3284   -8.6463   15.3349 Cl        1 <0>        -0.0439
     30 C18         0.8129  -14.2569   13.7941 C.3       1 <0>         0.5115
     31 F1          1.9631  -14.9635   13.4267 F         1 <0>        -0.1712
     32 F2          0.2048  -14.8900   14.8835 F         1 <0>        -0.1734
     33 F3         -0.0786  -14.2245   12.7165 F         1 <0>        -0.1726
     34 H1          0.7805    1.8379   -0.0076 H         1 <0>         0.1015
     35 H2         -1.0896    1.7999    0.0139 H         1 <0>         0.1061
     36 H3         -1.0412   -0.5896    0.0081 H         1 <0>         0.1150
     37 H4          1.2986   -1.3095   -0.9590 H         1 <0>         0.1079
     38 H5          2.0161   -0.0364    0.0572 H         1 <0>         0.0928
     39 H6          1.7052   -3.5728    0.1148 H         1 <0>         0.1840
     40 H7          1.1075   -2.5073    4.2439 H         1 <0>         0.1927
     41 H8          1.9120   -5.6711    1.9351 H         1 <0>         0.1193
     42 H9          2.0401   -7.2739    3.6322 H         1 <0>         0.4013
     43 H10         3.2431   -9.4810    5.3062 H         1 <0>         0.3630
     44 H11         1.8196  -10.1696    5.8215 H         1 <0>         0.3790
     45 H12         2.4223   -8.0278   10.4386 H         1 <0>         0.1364
     46 H13         0.6814   -8.3560   10.2660 H         1 <0>         0.1379
     47 H14         1.4674   -8.6235   12.8607 H         1 <0>         0.4220
     48 H15         0.9617  -12.0883   12.1932 H         1 <0>         0.1690
     49 H16         1.4897  -13.3310   16.2380 H         1 <0>         0.1501
     50 H17         2.1053  -11.0340   16.8712 H         1 <0>         0.1538
@<TRIPOS>BOND
     1    1    2 2
     2    1   34 1
     3    1   35 1
     4    2    3 1
     5    2   36 1
     6    3    4 1
     7    3   37 1
     8    3   38 1
     9    4    8 1
    10    4    5 1
    11    5    6 2
    12    5   39 1
    13    6    7 1
    14    6    9 1
    15    7    8 2
    16    7   40 1
    17    9   10 2
    18    9   41 1
    19   10   11 1
    20   11   12 1
    21   11   42 1
    22   12   16 1
    23   12   13 2
    24   13   14 1
    25   14   15 2
    26   15   16 1
    27   15   18 1
    28   16   17 1
    29   17   43 1
    30   17   44 1
    31   18   19 1
    32   19   20 1
    33   19   45 1
    34   19   46 1
    35   20   21 2
    36   20   22 am
    37   22   23 1
    38   22   47 1
    39   23   28 ar
    40   23   24 ar
    41   24   25 ar
    42   24   48 1
    43   25   26 ar
    44   25   30 1
    45   26   27 ar
    46   26   49 1
    47   27   28 ar
    48   27   50 1
    49   28   29 1
    50   30   31 1
    51   30   32 1
    52   30   33 1
@<TRIPOS>MOLECULE
ZINC13424695
   55    57     0     0     0
SMALL
USER_CHARGES
(E)-3-(3,4-dihydroxyphenyl)-1-[2,3,6-trihydroxy-4-[(2S,3S,4R,5S,6S)-3,4,5-trihydroxy-6-(hydroxymethyl)tetrahydropyran-2-yl]oxy-phenyl]prop-2-en-1-one
@<TRIPOS>ATOM
      1 C1          4.2198    3.3159   -3.7734 C.ar      1 <0>        -0.0891
      2 C2          3.6098    3.6684   -4.9575 C.ar      1 <0>        -0.1331
      3 C3          2.3991    4.3476   -4.9436 C.ar      1 <0>         0.0974
      4 C4          1.7938    4.6780   -3.7310 C.ar      1 <0>         0.0796
      5 C5          2.3980    4.3292   -2.5398 C.ar      1 <0>        -0.1037
      6 C6          3.6187    3.6433   -2.5527 C.ar      1 <0>        -0.0739
      7 C7          4.2672    3.2692   -1.2882 C.2       1 <0>        -0.0095
      8 C8          5.4452    2.6082   -1.3029 C.2       1 <0>        -0.2271
      9 C9          6.0906    2.2358   -0.0443 C.2       1 <0>         0.4522
     10 O1          5.6158    2.6034    1.0159 O.2       1 <0>        -0.4431
     11 C10         7.3135    1.4172   -0.0585 C.ar      1 <0>        -0.2210
     12 C11         7.2245    0.0167   -0.1117 C.ar      1 <0>         0.1901
     13 C12         8.3771   -0.7465   -0.1311 C.ar      1 <0>        -0.2080
     14 C13         9.6224   -0.1332   -0.0856 C.ar      1 <0>         0.1481
     15 C14         9.7210    1.2537   -0.0270 C.ar      1 <0>         0.0440
     16 C15         8.5746    2.0322   -0.0132 C.ar      1 <0>         0.1655
     17 O2          8.6709    3.3855    0.0435 O.3       1 <0>        -0.4768
     18 O3         10.9460    1.8468    0.0164 O.3       1 <0>        -0.4690
     19 O4         10.7495   -0.8907   -0.0989 O.3       1 <0>        -0.3031
     20 C16        10.5778   -2.3081   -0.1599 C.3       1 <0>         0.2106
     21 H1          9.9621   -2.5629   -1.0225 H         1 <0>         0.1181
     22 C17        11.9457   -2.9828   -0.2919 C.3       1 <0>         0.0670
     23 H2         11.8130   -4.0611   -0.3803 H         1 <0>         0.1028
     24 C18        12.7832   -2.6691    0.9518 C.3       1 <0>         0.0843
     25 H3         12.9579   -1.5949    1.0123 H         1 <0>         0.0821
     26 C19        12.0226   -3.1355    2.1969 C.3       1 <0>         0.0899
     27 H4         12.5864   -2.8663    3.0902 H         1 <0>         0.0844
     28 C20        10.6518   -2.4548    2.2327 C.3       1 <0>         0.1020
     29 H5         10.7837   -1.3757    2.3106 H         1 <0>         0.0868
     30 O5          9.9373   -2.7624    1.0340 O.3       1 <0>        -0.3529
     31 C21         9.8623   -2.9609    3.4417 C.3       1 <0>         0.0883
     32 O6          8.6314   -2.2419    3.5417 O.3       1 <0>        -0.5648
     33 O7         11.8520   -4.5534    2.1491 O.3       1 <0>        -0.5488
     34 O8         14.0343   -3.3548    0.8710 O.3       1 <0>        -0.5592
     35 O9         12.6127   -2.4868   -1.4543 O.3       1 <0>        -0.5493
     36 O10         6.0090   -0.5864   -0.1501 O.3       1 <0>        -0.4841
     37 O11         0.6108    5.3488   -3.7223 O.3       1 <0>        -0.4906
     38 O12         1.8024    4.6920   -6.1141 O.3       1 <0>        -0.4918
     39 H6          5.1616    2.7875   -3.7873 H         1 <0>         0.1367
     40 H7          4.0745    3.4152   -5.8989 H         1 <0>         0.1391
     41 H8          1.9304    4.5847   -1.6004 H         1 <0>         0.1406
     42 H9          3.8019    3.5226   -0.3471 H         1 <0>         0.1377
     43 H10         5.9105    2.3548   -2.2441 H         1 <0>         0.1351
     44 H11         8.3088   -1.8233   -0.1765 H         1 <0>         0.1539
     45 H12         8.6846    3.7415    0.9425 H         1 <0>         0.3983
     46 H13        11.2860    1.9821    0.9115 H         1 <0>         0.3845
     47 H14         9.6533   -4.0238    3.3201 H         1 <0>         0.0687
     48 H15        10.4476   -2.8070    4.3482 H         1 <0>         0.0639
     49 H16         8.0782   -2.5111    4.2877 H         1 <0>         0.3847
     50 H17        12.6820   -5.0487    2.1201 H         1 <0>         0.3895
     51 H18        14.5666   -3.1127    0.1009 H         1 <0>         0.3953
     52 H19        12.1354   -2.6467   -2.2799 H         1 <0>         0.3880
     53 H20         5.6684   -0.7283   -1.0439 H         1 <0>         0.3974
     54 H21        -0.1671    4.7744   -3.7280 H         1 <0>         0.3952
     55 H22         2.0622    5.5619   -6.4470 H         1 <0>         0.3969
@<TRIPOS>BOND
     1    1    6 ar
     2    1    2 ar
     3    1   39 1
     4    2    3 ar
     5    2   40 1
     6    3    4 ar
     7    3   38 1
     8    4    5 ar
     9    4   37 1
    10    5    6 ar
    11    5   41 1
    12    6    7 1
    13    7    8 2
    14    7   42 1
    15    8    9 1
    16    8   43 1
    17    9   10 2
    18    9   11 1
    19   11   16 ar
    20   11   12 ar
    21   12   13 ar
    22   12   36 1
    23   13   14 ar
    24   13   44 1
    25   14   15 ar
    26   14   19 1
    27   15   16 ar
    28   15   18 1
    29   16   17 1
    30   17   45 1
    31   18   46 1
    32   19   20 1
    33   20   21 1
    34   20   30 1
    35   20   22 1
    36   22   23 1
    37   22   24 1
    38   22   35 1
    39   24   25 1
    40   24   26 1
    41   24   34 1
    42   26   27 1
    43   26   28 1
    44   26   33 1
    45   28   29 1
    46   28   30 1
    47   28   31 1
    48   31   32 1
    49   31   47 1
    50   31   48 1
    51   32   49 1
    52   33   50 1
    53   34   51 1
    54   35   52 1
    55   36   53 1
    56   37   54 1
    57   38   55 1
@<TRIPOS>MOLECULE
ZINC33832004
   52    54     0     0     0
SMALL
USER_CHARGES
(E)-1-(2,4-dihydroxyphenyl)-3-[4-[(2S,3R,4S,5S,6R)-3,4,5-trihydroxy-6-(hydroxymethyl)tetrahydropyran-2-yl]oxyphenyl]prop-2-en-1-one
@<TRIPOS>ATOM
      1 C1         -1.2145    1.7465    0.0173 C.ar      1 <0>        -0.0620
      2 C2         -0.0126    1.0758    0.0080 C.ar      1 <0>        -0.1490
      3 C3          1.1827    1.7861    0.0004 C.ar      1 <0>         0.1416
      4 C4          1.1709    3.1764    0.0075 C.ar      1 <0>        -0.1883
      5 C5         -0.0254    3.8570    0.0216 C.ar      1 <0>        -0.0523
      6 C6         -1.2320    3.1466    0.0293 C.ar      1 <0>        -0.1160
      7 C7         -2.5120    3.8678    0.0440 C.2       1 <0>        -0.0107
      8 C8         -3.6752    3.1798    0.0514 C.2       1 <0>        -0.2437
      9 C9         -4.9488    3.8973    0.0660 C.2       1 <0>         0.4273
     10 O1         -4.9616    5.1154    0.0715 O.2       1 <0>        -0.4528
     11 C10        -6.2177    3.1468    0.0741 C.ar      1 <0>        -0.2487
     12 C11        -6.2063    1.7482    0.0678 C.ar      1 <0>         0.0067
     13 C12        -7.3922    1.0515    0.0759 C.ar      1 <0>        -0.2170
     14 C13        -8.6057    1.7334    0.0907 C.ar      1 <0>         0.2280
     15 C14        -8.6286    3.1202    0.0975 C.ar      1 <0>        -0.3318
     16 C15        -7.4418    3.8327    0.0939 C.ar      1 <0>         0.2527
     17 O2         -7.4620    5.1892    0.1057 O.3       1 <0>        -0.4738
     18 O3         -9.7714    1.0382    0.0990 O.3       1 <0>        -0.5021
     19 O4          2.3652    1.1199   -0.0136 O.3       1 <0>        -0.2819
     20 C16         3.5553    1.9108   -0.0208 C.3       1 <0>         0.2685
     21 H1          3.4781    2.6331    0.8052 H         1 <0>         0.0780
     22 C17         4.7774    0.9952    0.0889 C.3       1 <0>         0.1177
     23 H2          4.7691    0.2181   -0.6896 H         1 <0>         0.0846
     24 C18         6.0500    1.8448    0.0197 C.3       1 <0>         0.1010
     25 H3          6.1476    2.4984    0.8991 H         1 <0>         0.0755
     26 C19         6.0425    2.6512   -1.2826 C.3       1 <0>         0.0634
     27 H4          6.1273    1.9965   -2.1625 H         1 <0>         0.0786
     28 C20         4.7716    3.5028   -1.3391 C.3       1 <0>         0.0695
     29 H5          4.7121    4.1899   -0.4822 H         1 <0>         0.0800
     30 O5          3.6262    2.6541   -1.2392 O.3       1 <0>        -0.3796
     31 C21         4.7272    4.2658   -2.6645 C.3       1 <0>         0.0951
     32 O6          3.6022    5.1470   -2.6693 O.3       1 <0>        -0.5902
     33 O7          7.1898    3.5021   -1.3241 O.3       1 <0>        -0.5898
     34 O8          7.1963    0.9920    0.0473 O.3       1 <0>        -0.5908
     35 O9          4.7383    0.2937    1.3333 O.3       1 <0>        -0.5793
     36 H6         -2.1424    1.1939    0.0187 H         1 <0>         0.1357
     37 H7          0.0021   -0.0041    0.0020 H         1 <0>         0.1358
     38 H8          2.1022    3.7234    0.0015 H         1 <0>         0.1334
     39 H9         -0.0334    4.9369    0.0272 H         1 <0>         0.1312
     40 H10        -2.5235    4.9677    0.0490 H         1 <0>         0.1362
     41 H11        -3.6637    2.0799    0.0464 H         1 <0>         0.1328
     42 H12        -5.2668    1.2156    0.0570 H         1 <0>         0.1431
     43 H13        -7.3818   -0.0284    0.0710 H         1 <0>         0.1358
     44 H14        -9.5728    3.6444    0.1093 H         1 <0>         0.1357
     45 H15        -8.4226    5.7248    0.1212 H         1 <0>         0.4311
     46 H16       -10.7316    1.5747    0.1107 H         1 <0>         0.4385
     47 H17         5.6515    4.8505   -2.7821 H         1 <0>         0.0619
     48 H18         4.6370    3.5514   -3.4960 H         1 <0>         0.0568
     49 H19         3.4050    5.7824   -3.5453 H         1 <0>         0.4161
     50 H20         7.3552    4.1605   -2.1896 H         1 <0>         0.4153
     51 H21         8.2061    1.4263    0.0057 H         1 <0>         0.4260
     52 H22         5.5393   -0.4150    1.5906 H         1 <0>         0.4259
@<TRIPOS>BOND
     1    1    6 ar
     2    1    2 ar
     3    1   36 1
     4    2    3 ar
     5    2   37 1
     6    3    4 ar
     7    3   19 1
     8    4    5 ar
     9    4   38 1
    10    5    6 ar
    11    5   39 1
    12    6    7 1
    13    7    8 2
    14    7   40 1
    15    8    9 1
    16    8   41 1
    17    9   10 2
    18    9   11 1
    19   11   16 ar
    20   11   12 ar
    21   12   13 ar
    22   12   42 1
    23   13   14 ar
    24   13   43 1
    25   14   15 ar
    26   14   18 1
    27   15   16 ar
    28   15   44 1
    29   16   17 1
    30   17   45 1
    31   18   46 1
    32   19   20 1
    33   20   21 1
    34   20   30 1
    35   20   22 1
    36   22   23 1
    37   22   24 1
    38   22   35 1
    39   24   25 1
    40   24   26 1
    41   24   34 1
    42   26   27 1
    43   26   28 1
    44   26   33 1
    45   28   29 1
    46   28   30 1
    47   28   31 1
    48   31   32 1
    49   31   47 1
    50   31   48 1
    51   32   49 1
    52   33   50 1
    53   34   51 1
    54   35   52 1
@<TRIPOS>MOLECULE
ZINC38655495
   40    42     0     0     0
SMALL
USER_CHARGES

@<TRIPOS>ATOM
      1 C1         -0.0158    1.3119    0.0093 C.ar      1 <0>         0.3546
      2 N1          1.0888    2.0360    0.0026 N.ar      1 <0>        -0.5974
      3 C2          2.2875    1.4625   -0.0119 C.ar      1 <0>         0.5056
      4 C3          2.3582    0.0588   -0.0202 C.ar      1 <0>        -0.1069
      5 C4          1.1547   -0.6659   -0.0126 C.ar      1 <0>         0.3162
      6 N2          0.0021   -0.0041    0.0020 N.ar      1 <0>        -0.5560
      7 N3          1.5110   -1.9908   -0.0227 N.pl3     1 <0>        -0.4628
      8 C5          2.8729   -2.0476   -0.0358 C.2       1 <0>         0.2721
      9 N4          3.3680   -0.8441   -0.0343 N.2       1 <0>        -0.4686
     10 C6          0.5956   -3.1347   -0.0195 C.3       1 <0>         0.3047
     11 H1         -0.2800   -2.9068    0.5884 H         1 <0>         0.1409
     12 C7          0.1616   -3.4624   -1.4613 C.3       1 <0>         0.0405
     13 H2         -0.9250   -3.4457   -1.5458 H         1 <0>         0.0959
     14 C8          0.7020   -4.8926   -1.7044 C.3       1 <0>         0.0474
     15 H3          1.1180   -4.9860   -2.7076 H         1 <0>         0.0945
     16 C9          1.8147   -5.0060   -0.6314 C.3       1 <0>         0.0743
     17 H4          2.7313   -4.5279   -0.9770 H         1 <0>         0.0998
     18 O1          1.2648   -4.2947    0.5027 O.3       1 <0>        -0.3284
     19 C10         2.0741   -6.4716   -0.2770 C.3       1 <0>         0.1502
     20 O2          3.1798   -6.5552    0.6244 O.3       1 <0>        -0.7683
     21 P1          3.7317   -7.9505    1.2082 P.3       1 <0>         2.2721
     22 O3          2.5758   -8.7172    1.8888 O.2       1 <0>        -1.0947
     23 O4          4.3043   -8.8016    0.0529 O.3       1 <0>        -1.0872
     24 O5          4.8912   -7.6599    2.2866 O.3       1 <0>        -0.8655
     25 P2          5.6132   -8.5476    3.4192 P.3       1 <0>         0.8903
     26 O6          6.5014   -7.5427    4.3099 O.3       1 <0>        -0.6964
     27 O7          4.4535   -9.1245    4.3755 O.3       1 <0>        -0.6848
     28 O8         -0.3194   -5.8678   -1.4858 O.3       1 <0>        -0.5358
     29 O9          0.7478   -2.5401   -2.3821 O.3       1 <0>        -0.5398
     30 N5          3.4393    2.2295   -0.0193 N.pl3     1 <0>        -0.8215
     31 H5         -0.9693    1.8187    0.0257 H         1 <0>         0.2008
     32 H6          3.4551   -2.9572   -0.0459 H         1 <0>         0.2175
     33 H7          1.1872   -6.8935    0.1958 H         1 <0>         0.0773
     34 H8          2.3024   -7.0301   -1.1848 H         1 <0>         0.0744
     35 H9          6.9836   -7.9751    5.0279 H         1 <0>         0.3975
     36 H10         4.7790   -9.6780    5.0985 H         1 <0>         0.3953
     37 H11        -1.0800   -5.7799   -2.0765 H         1 <0>         0.3815
     38 H12         0.5081   -2.6999   -3.3052 H         1 <0>         0.3849
     39 H13         3.3774    3.1975   -0.0138 H         1 <0>         0.4075
     40 H14         4.3085    1.7992   -0.0299 H         1 <0>         0.4182
@<TRIPOS>BOND
     1    1    6 ar
     2    1    2 ar
     3    1   31 1
     4    2    3 ar
     5    3    4 ar
     6    3   30 1
     7    4    9 1
     8    4    5 ar
     9    5    6 ar
    10    5    7 1
    11    7    8 1
    12    7   10 1
    13    8    9 2
    14    8   32 1
    15   10   11 1
    16   10   18 1
    17   10   12 1
    18   12   13 1
    19   12   14 1
    20   12   29 1
    21   14   15 1
    22   14   16 1
    23   14   28 1
    24   16   17 1
    25   16   18 1
    26   16   19 1
    27   19   20 1
    28   19   33 1
    29   19   34 1
    30   20   21 1
    31   21   22 2
    32   21   23 1
    33   21   24 1
    34   24   25 1
    35   25   26 1
    36   25   27 1
    37   26   35 1
    38   27   36 1
    39   28   37 1
    40   29   38 1
    41   30   39 1
    42   30   40 1
@<TRIPOS>MOLECULE
ZINC44676009
   66    68     0     0     0
SMALL
USER_CHARGES

@<TRIPOS>ATOM
      1 C1         -0.0167    1.3784    0.0096 C.ar      1 <0>        -0.0743
      2 C2          1.1695    2.0865    0.0021 C.ar      1 <0>        -0.1498
      3 C3          2.3802    1.4093   -0.0131 C.ar      1 <0>         0.1441
      4 C4          2.3963    0.0221   -0.0206 C.ar      1 <0>        -0.2058
      5 C5          1.2074   -0.6814   -0.0130 C.ar      1 <0>        -0.0661
      6 C6          0.0021   -0.0041    0.0020 C.ar      1 <0>        -0.1425
      7 C7         -1.2934   -0.7740    0.0107 C.3       1 <0>        -0.0823
      8 C8         -1.7461   -1.0268   -1.4288 C.3       1 <0>        -0.1331
      9 C9         -3.0613   -1.8085   -1.4199 C.3       1 <0>         0.0666
     10 C10        -3.5139   -2.0613   -2.8594 C.3       1 <0>         0.0607
     11 O1         -4.7982   -2.6880   -2.8518 O.3       1 <0>        -0.5841
     12 C11        -2.8544   -3.1468   -0.7079 C.3       1 <0>         0.0658
     13 O2         -1.8556   -3.9028   -1.3955 O.3       1 <0>        -0.5532
     14 N1         -4.0881   -1.0313   -0.7131 N.4       1 <0>        -0.6282
     15 O3          3.5484    2.1036   -0.0209 O.3       1 <0>        -0.3120
     16 C12         4.7565    1.3405   -0.0365 C.3       1 <0>         0.0578
     17 C13         5.9580    2.2878   -0.0434 C.3       1 <0>        -0.1206
     18 C14         7.2515    1.4708   -0.0601 C.3       1 <0>        -0.1168
     19 C15         8.4529    2.4181   -0.0670 C.3       1 <0>        -0.1153
     20 C16         9.7464    1.6011   -0.0837 C.3       1 <0>        -0.1355
     21 C17        10.9479    2.5483   -0.0906 C.3       1 <0>         0.1050
     22 N2         12.1865    1.7660   -0.1065 N.pl3     1 <0>        -0.6930
     23 C18        13.4177    2.4131   -0.1153 C.ar      1 <0>         0.3282
     24 C19        13.4855    3.7739   -0.1035 C.ar      1 <0>        -0.2536
     25 C20        14.7086    4.4474   -0.1123 C.ar      1 <0>         0.1059
     26 C21        15.8969    3.8012   -0.1331 C.ar      1 <0>        -0.1149
     27 C22        15.9418    2.3850   -0.1463 C.ar      1 <0>         0.1349
     28 C23        14.6668    1.6414   -0.1313 C.ar      1 <0>         0.0697
     29 N3         14.9394    0.3606   -0.1403 N.2       1 <0>        -0.2310
     30 O4         16.3492    0.2138   -0.1547 O.3       1 <0>         0.0776
     31 N4         16.9217    1.5105   -0.1657 N.2       1 <0>        -0.2248
     32 N5         17.1575    4.5780   -0.1424 N.pl3     1 <0>         0.0466
     33 O5         17.1229    5.7865   -0.1316 O.2       1 <0>        -0.1670
     34 O6         18.2213    4.0039   -0.1610 O.3       1 <0>        -0.1496
     35 H1         -0.9594    1.9052    0.0259 H         1 <0>         0.1266
     36 H2          1.1543    3.1664    0.0076 H         1 <0>         0.1351
     37 H3          3.3375   -0.5074   -0.0328 H         1 <0>         0.1317
     38 H4          1.2194   -1.7613   -0.0189 H         1 <0>         0.1263
     39 H5         -1.1460   -1.7274    0.5180 H         1 <0>         0.0878
     40 H6         -2.0553   -0.1973    0.5352 H         1 <0>         0.0646
     41 H7         -1.8934   -0.0734   -1.9361 H         1 <0>         0.0941
     42 H8         -0.9842   -1.6035   -1.9533 H         1 <0>         0.1236
     43 H9         -3.5757   -1.1127   -3.3928 H         1 <0>         0.0749
     44 H10        -2.7951   -2.7120   -3.3574 H         1 <0>         0.1030
     45 H11        -5.1482   -2.8783   -3.7329 H         1 <0>         0.4131
     46 H12        -2.5319   -2.9667    0.3176 H         1 <0>         0.0716
     47 H13        -3.7914   -3.7037   -0.7016 H         1 <0>         0.0775
     48 H14        -1.6723   -4.7652   -0.9984 H         1 <0>         0.4067
     49 H15        -4.2245   -0.1487   -1.1827 H         1 <0>         0.4394
     50 H16        -4.9554   -1.5468   -0.7073 H         1 <0>         0.4425
     51 H17         4.7979    0.7076    0.8500 H         1 <0>         0.0646
     52 H18         4.7806    0.7165   -0.9299 H         1 <0>         0.0644
     53 H19         5.9165    2.9207   -0.9299 H         1 <0>         0.0773
     54 H20         5.9338    2.9118    0.8500 H         1 <0>         0.0775
     55 H21         7.2929    0.8379    0.8264 H         1 <0>         0.0681
     56 H22         7.2756    0.8468   -0.9535 H         1 <0>         0.0679
     57 H23         8.4115    3.0510   -0.9535 H         1 <0>         0.0721
     58 H24         8.4288    3.0420    0.8264 H         1 <0>         0.0723
     59 H25         9.7879    0.9681    0.8028 H         1 <0>         0.0755
     60 H26         9.7706    0.9771   -0.9770 H         1 <0>         0.0753
     61 H27        10.9065    3.1812   -0.9771 H         1 <0>         0.0842
     62 H28        10.9238    3.1723    0.8028 H         1 <0>         0.0843
     63 H29        12.1479    0.7968   -0.1110 H         1 <0>         0.4167
     64 H30        12.5698    4.3463   -0.0872 H         1 <0>         0.1661
     65 H31        14.7059    5.5273   -0.1026 H         1 <0>         0.1740
     66 H32        -3.7895   -0.8646    0.2362 H         1 <0>         0.4322
@<TRIPOS>BOND
     1    1    6 ar
     2    1    2 ar
     3    1   35 1
     4    2    3 ar
     5    2   36 1
     6    3    4 ar
     7    3   15 1
     8    4    5 ar
     9    4   37 1
    10    5    6 ar
    11    5   38 1
    12    6    7 1
    13    7    8 1
    14    7   39 1
    15    7   40 1
    16    8    9 1
    17    8   41 1
    18    8   42 1
    19    9   10 1
    20    9   12 1
    21    9   14 1
    22   10   11 1
    23   10   43 1
    24   10   44 1
    25   11   45 1
    26   12   13 1
    27   12   46 1
    28   12   47 1
    29   13   48 1
    30   14   49 1
    31   14   50 1
    32   14   66 1
    33   15   16 1
    34   16   17 1
    35   16   51 1
    36   16   52 1
    37   17   18 1
    38   17   53 1
    39   17   54 1
    40   18   19 1
    41   18   55 1
    42   18   56 1
    43   19   20 1
    44   19   57 1
    45   19   58 1
    46   20   21 1
    47   20   59 1
    48   20   60 1
    49   21   22 1
    50   21   61 1
    51   21   62 1
    52   22   23 1
    53   22   63 1
    54   23   28 ar
    55   23   24 ar
    56   24   25 ar
    57   24   64 1
    58   25   26 ar
    59   25   65 1
    60   26   27 ar
    61   26   32 1
    62   27   31 2
    63   27   28 ar
    64   28   29 2
    65   29   30 1
    66   30   31 1
    67   32   33 2
    68   32   34 1
@<TRIPOS>MOLECULE
ZINC63503254
   46    49     0     0     0
SMALL
USER_CHARGES

@<TRIPOS>ATOM
      1 C1         -0.0173    1.4248    0.0099 C.3       1 <0>         0.0233
      2 O1          0.0021   -0.0041    0.0020 O.3       1 <0>        -0.3539
      3 C2         -1.1855   -0.6297    0.0100 C.2       1 <0>         0.4596
      4 O2         -2.2076    0.0145    0.0232 O.2       1 <0>        -0.4556
      5 C3         -1.2439   -2.1355    0.0025 C.3       1 <0>         0.0454
      6 H1         -0.4811   -2.5570    0.6571 H         1 <0>         0.1730
      7 C4         -1.1063   -2.6880   -1.4358 C.3       1 <0>         0.1250
      8 H2         -0.5336   -3.6154   -1.4327 H         1 <0>         0.1449
      9 N1         -2.4895   -2.9409   -1.8773 N.pl3     1 <0>        -0.4646
     10 N2         -3.3425   -2.5336   -0.8818 N.3       1 <0>        -0.2725
     11 N3         -2.6012   -2.6189    0.3842 N.3       1 <0>        -0.4254
     12 C5         -2.8663   -3.4967   -3.0951 C.2       1 <0>         0.3852
     13 C6         -4.2433   -3.7434   -3.5375 C.2       1 <0>         0.3469
     14 N4         -4.2024   -4.2724   -4.7287 N.2       1 <0>        -0.3136
     15 O3         -2.8419   -4.3909   -5.1053 O.3       1 <0>         0.0525
     16 N5         -2.0565   -3.8827   -4.0415 N.2       1 <0>        -0.3567
     17 N6         -5.3950   -3.4618   -2.8107 N.pl3     1 <0>        -0.7975
     18 C7         -0.4366   -1.6529   -2.3419 C.3       1 <0>        -0.2142
     19 S1         -0.2875   -2.3248   -4.0203 S.3       1 <0>         0.1628
     20 C8          0.5146   -0.9939   -4.9562 C.3       1 <0>         0.1653
     21 H3          0.6650   -1.3025   -5.9907 H         1 <0>         0.2779
     22 N7          1.8025   -0.6502   -4.3405 N.pl3     1 <0>        -0.4386
     23 C9          1.7418    0.5990   -3.9796 C.ar      1 <0>         0.2748
     24 C10         2.7019    1.4969   -3.3229 C.ar      1 <0>        -0.0898
     25 C11         2.3517    2.7736   -3.0682 C.ar      1 <0>         0.0125
     26 C12         1.0905    3.2956   -3.4066 C.ar      1 <0>         0.0824
     27 C13         0.1373    2.5587   -4.0114 C.ar      1 <0>        -0.0574
     28 C14         0.4069    1.1516   -4.3378 C.ar      1 <0>         0.2834
     29 N8         -0.3068    0.2223   -4.9074 N.pl3     1 <0>        -0.4224
     30 N9          0.7981    4.7107   -3.0863 N.pl3     1 <0>        -0.0069
     31 O4          1.6359    5.3934   -2.5444 O.2       1 <0>        -0.0632
     32 O5         -0.2785    5.1840   -3.3667 O.3       1 <0>        -0.0838
     33 H4          1.0053    1.8021    0.0021 H         1 <0>         0.1130
     34 H5         -0.5445    1.7859   -0.8732 H         1 <0>         0.0483
     35 H6         -0.5275    1.7763    0.9067 H         1 <0>         0.0867
     36 H7         -3.6684   -1.5931   -1.0473 H         1 <0>         0.3810
     37 H8         -2.5654   -3.5700    0.7190 H         1 <0>         0.3994
     38 H9         -5.3266   -3.0664   -1.9275 H         1 <0>         0.4277
     39 H10        -6.2667   -3.6607   -3.1868 H         1 <0>         0.4299
     40 H11        -1.0408   -0.7460   -2.3660 H         1 <0>         0.1052
     41 H12         0.5551   -1.4186   -1.9549 H         1 <0>         0.1428
     42 H13         3.6815    1.1364   -3.0459 H         1 <0>         0.2224
     43 H14         3.0681    3.4211   -2.5847 H         1 <0>         0.2210
     44 H15        -0.8181    2.9997   -4.2545 H         1 <0>         0.2267
     45 H16        -1.2135    0.3160   -5.2389 H         1 <0>         0.4978
     46 H17         2.5596   -1.2451   -4.2236 H         1 <0>         0.4993
@<TRIPOS>BOND
     1    1    2 1
     2    1   33 1
     3    1   34 1
     4    1   35 1
     5    2    3 1
     6    3    4 2
     7    3    5 1
     8    5    6 1
     9    5   11 1
    10    5    7 1
    11    7    8 1
    12    7    9 1
    13    7   18 1
    14    9   10 1
    15    9   12 1
    16   10   11 1
    17   10   36 1
    18   11   37 1
    19   12   16 2
    20   12   13 1
    21   13   14 2
    22   13   17 1
    23   14   15 1
    24   15   16 1
    25   17   38 1
    26   17   39 1
    27   18   19 1
    28   18   40 1
    29   18   41 1
    30   19   20 1
    31   20   21 1
    32   20   29 1
    33   20   22 1
    34   22   23 2
    35   22   46 1
    36   23   28 ar
    37   23   24 ar
    38   24   25 ar
    39   24   42 1
    40   25   26 ar
    41   25   43 1
    42   26   27 ar
    43   26   30 1
    44   27   28 ar
    45   27   44 1
    46   28   29 2
    47   29   45 1
    48   30   31 2
    49   30   32 1
@<TRIPOS>MOLECULE
ZINC04349580
   75    79     0     0     0
SMALL
USER_CHARGES
7-[4,5-dihydroxy-6-(hydroxymethyl)-3-(3,4,5-trihydroxy-6-methyl-tetrahydropyran-2-yl)oxy-tetrahydropyran-2-yl]oxy-5-hydroxy-2-(3-hydroxy-4-methoxy-phenyl)-chromen-4-one
@<TRIPOS>ATOM
      1 C1          2.7652    1.7298   -3.4991 C.3       1 <0>        -0.1545
      2 C2          1.3051    1.9083   -3.0781 C.3       1 <0>         0.0445
      3 H1          1.2530    2.5830   -2.2237 H         1 <0>         0.0913
      4 C3          0.5060    2.4975   -4.2434 C.3       1 <0>         0.0943
      5 H2          0.5909    1.8432   -5.1111 H         1 <0>         0.0763
      6 C4         -0.9654    2.6171   -3.8345 C.3       1 <0>         0.1273
      7 H3         -1.0562    3.3101   -2.9981 H         1 <0>         0.0897
      8 C5         -1.4813    1.2369   -3.4149 C.3       1 <0>         0.0657
      9 H4         -2.5116    1.3224   -3.0696 H         1 <0>         0.0846
     10 C6         -0.6052    0.6965   -2.2817 C.3       1 <0>         0.2028
     11 H5         -0.9411   -0.3036   -2.0078 H         1 <0>         0.1106
     12 O1          0.7545    0.6398   -2.7179 O.3       1 <0>        -0.3799
     13 O2         -0.7062    1.5604   -1.1478 O.3       1 <0>        -0.3247
     14 C7         -0.0127    1.0858    0.0080 C.3       1 <0>         0.0944
     15 H6          0.0021   -0.0041    0.0020 H         1 <0>         0.0922
     16 C8         -0.7226    1.5812    1.2718 C.3       1 <0>         0.1194
     17 H7         -0.2228    1.1779    2.1525 H         1 <0>         0.0940
     18 C9         -0.6686    3.1116    1.3077 C.3       1 <0>         0.0514
     19 H8         -1.1229    3.4705    2.2313 H         1 <0>         0.0719
     20 C10         0.7925    3.5645    1.2467 C.3       1 <0>         0.0574
     21 H9          1.3249    3.1943    2.1228 H         1 <0>         0.0809
     22 O3          1.4020    3.0443    0.0635 O.3       1 <0>        -0.3457
     23 C11         1.4231    1.6170   -0.0028 C.3       1 <0>         0.2166
     24 H10         1.9199    1.3030   -0.9208 H         1 <0>         0.1342
     25 O4          2.1318    1.0978    1.1241 O.3       1 <0>        -0.3208
     26 C12         3.4551    1.3891    1.2076 C.ar      1 <0>         0.2084
     27 C13         4.0551    2.1569    0.2153 C.ar      1 <0>        -0.2421
     28 C14         5.4010    2.4632    0.2928 C.ar      1 <0>         0.2418
     29 C15         6.1559    1.9863    1.3719 C.ar      1 <0>        -0.2845
     30 C16         7.5932    2.2845    1.4906 C.2       1 <0>         0.4252
     31 O5          8.1725    2.9573    0.6531 O.2       1 <0>        -0.4578
     32 C17         8.2763    1.7610    2.6137 C.2       1 <0>        -0.3136
     33 C18         7.5952    1.0159    3.5255 C.2       1 <0>         0.2131
     34 O6          6.2847    0.7505    3.4061 O.3       1 <0>        -0.2179
     35 C19         5.5483    1.2061    2.3705 C.ar      1 <0>         0.2001
     36 C20         4.1964    0.9135    2.2781 C.ar      1 <0>        -0.1869
     37 C21         8.3247    0.4783    4.6894 C.ar      1 <0>        -0.0968
     38 C22         9.6910    0.7319    4.8379 C.ar      1 <0>        -0.0433
     39 C23        10.3699    0.2324    5.9283 C.ar      1 <0>        -0.1983
     40 C24         9.7019   -0.5310    6.8759 C.ar      1 <0>         0.1319
     41 C25         8.3404   -0.7923    6.7314 C.ar      1 <0>         0.0725
     42 C26         7.6523   -0.2907    5.6433 C.ar      1 <0>        -0.0655
     43 O7          7.6891   -1.5406    7.6617 O.3       1 <0>        -0.4813
     44 O8         10.3768   -1.0249    7.9464 O.3       1 <0>        -0.3012
     45 C27        11.7700   -0.7190    8.0325 C.3       1 <0>         0.0206
     46 O9          5.9874    3.2166   -0.6718 O.3       1 <0>        -0.4701
     47 C28         0.8522    5.0931    1.2216 C.3       1 <0>         0.0821
     48 O10         2.2154    5.5176    1.2808 O.3       1 <0>        -0.5577
     49 O11        -1.3799    3.6410    0.1871 O.3       1 <0>        -0.5219
     50 O12        -2.0852    1.1511    1.2543 O.3       1 <0>        -0.5409
     51 O13        -1.4225    0.3458   -4.5304 O.3       1 <0>        -0.5340
     52 O14        -1.7311    3.0995   -4.9404 O.3       1 <0>        -0.5445
     53 O15         1.0191    3.7909   -4.5687 O.3       1 <0>        -0.5486
     54 H11         2.8171    1.0553   -4.3538 H         1 <0>         0.0715
     55 H12         3.1850    2.6974   -3.7738 H         1 <0>         0.0795
     56 H13         3.3337    1.3094   -2.6695 H         1 <0>         0.0664
     57 H14         3.4674    2.5180   -0.6157 H         1 <0>         0.1521
     58 H15         9.3310    1.9518    2.7463 H         1 <0>         0.1619
     59 H16         3.7203    0.3150    3.0407 H         1 <0>         0.1535
     60 H17        10.2140    1.3221    4.1000 H         1 <0>         0.1433
     61 H18        11.4250    0.4320    6.0437 H         1 <0>         0.1451
     62 H19         6.5975   -0.4927    5.5300 H         1 <0>         0.1494
     63 H20         7.6895   -2.4891    7.4739 H         1 <0>         0.3908
     64 H21        12.1867   -1.1727    8.9317 H         1 <0>         0.1062
     65 H22        12.2834   -1.1129    7.1553 H         1 <0>         0.0603
     66 H23        11.9026    0.3620    8.0760 H         1 <0>         0.0608
     67 H24         6.3472    2.7028   -1.4077 H         1 <0>         0.4007
     68 H25         0.3972    5.4595    0.3014 H         1 <0>         0.0600
     69 H26         0.3099    5.4920    2.0789 H         1 <0>         0.0629
     70 H27         2.3292    6.4778    1.2688 H         1 <0>         0.3843
     71 H28        -1.3827    4.6070    0.1437 H         1 <0>         0.3705
     72 H29        -2.5956    1.4303    2.0267 H         1 <0>         0.3828
     73 H30        -1.7301   -0.5499   -4.3349 H         1 <0>         0.3802
     74 H31        -2.6743    3.1996   -4.7518 H         1 <0>         0.3776
     75 H32         1.9493    3.7900   -4.8328 H         1 <0>         0.3772
@<TRIPOS>BOND
     1    1    2 1
     2    1   54 1
     3    1   55 1
     4    1   56 1
     5    2    3 1
     6    2   12 1
     7    2    4 1
     8    4    5 1
     9    4    6 1
    10    4   53 1
    11    6    7 1
    12    6    8 1
    13    6   52 1
    14    8    9 1
    15    8   10 1
    16    8   51 1
    17   10   11 1
    18   10   12 1
    19   10   13 1
    20   13   14 1
    21   14   15 1
    22   14   23 1
    23   14   16 1
    24   16   17 1
    25   16   18 1
    26   16   50 1
    27   18   19 1
    28   18   20 1
    29   18   49 1
    30   20   21 1
    31   20   22 1
    32   20   47 1
    33   22   23 1
    34   23   24 1
    35   23   25 1
    36   25   26 1
    37   26   36 ar
    38   26   27 ar
    39   27   28 ar
    40   27   57 1
    41   28   29 ar
    42   28   46 1
    43   29   35 ar
    44   29   30 1
    45   30   31 2
    46   30   32 1
    47   32   33 2
    48   32   58 1
    49   33   34 1
    50   33   37 1
    51   34   35 1
    52   35   36 ar
    53   36   59 1
    54   37   42 ar
    55   37   38 ar
    56   38   39 ar
    57   38   60 1
    58   39   40 ar
    59   39   61 1
    60   40   41 ar
    61   40   44 1
    62   41   42 ar
    63   41   43 1
    64   42   62 1
    65   43   63 1
    66   44   45 1
    67   45   64 1
    68   45   65 1
    69   45   66 1
    70   46   67 1
    71   47   48 1
    72   47   68 1
    73   47   69 1
    74   48   70 1
    75   49   71 1
    76   50   72 1
    77   51   73 1
    78   52   74 1
    79   53   75 1
@<TRIPOS>MOLECULE
ZINC15043210
   54    56     0     0     0
SMALL
USER_CHARGES
[(2R,3R,4R,5R,6S)-3,4,5-trihydroxy-6-(3,4,5-trihydroxybenzoyl)oxy-tetrahydropyran-2-yl]methyl 3,4,5-trihydroxybenzoate
@<TRIPOS>ATOM
      1 C1         11.2124    0.5900    3.3663 C.ar      1 <0>        -0.0735
      2 C2         10.0282    1.3077    3.5562 C.ar      1 <0>        -0.1034
      3 C3          9.6797    2.3247    2.6631 C.ar      1 <0>        -0.0772
      4 C4         10.5116    2.6249    1.6010 C.ar      1 <0>         0.0860
      5 C5         11.6907    1.9082    1.4142 C.ar      1 <0>         0.0939
      6 C6         12.0378    0.8909    2.2995 C.ar      1 <0>         0.0858
      7 O1         13.1905    0.1932    2.1144 O.3       1 <0>        -0.4783
      8 O2         12.5044    2.2023    0.3665 O.3       1 <0>        -0.4730
      9 O3         10.1756    3.6178    0.7344 O.3       1 <0>        -0.4785
     10 C7          9.1451    0.9885    4.6933 C.2       1 <0>         0.5150
     11 O4          9.4467    0.1008    5.4662 O.2       1 <0>        -0.4987
     12 O5          8.0038    1.6813    4.8752 O.3       1 <0>        -0.3408
     13 C8          7.1835    1.3128    6.0153 C.3       1 <0>         0.0809
     14 C9          5.9393    2.2022    6.0572 C.3       1 <0>         0.1172
     15 H1          6.2411    3.2496    6.0590 H         1 <0>         0.1016
     16 C10         5.1379    1.8996    7.3260 C.3       1 <0>         0.0836
     17 H2          5.7390    2.1386    8.2033 H         1 <0>         0.0955
     18 C11         3.8641    2.7504    7.3310 C.3       1 <0>         0.0877
     19 H3          3.2613    2.4992    8.2037 H         1 <0>         0.0867
     20 C12         3.0654    2.4617    6.0562 C.3       1 <0>         0.0602
     21 H4          2.7551    1.4168    6.0485 H         1 <0>         0.0928
     22 C13         3.9469    2.7426    4.8364 C.3       1 <0>         0.2442
     23 H5          4.2225    3.7971    4.8222 H         1 <0>         0.0892
     24 O6          5.1285    1.9422    4.9095 O.3       1 <0>        -0.3671
     25 O7          3.2155    2.4168    3.6251 O.3       1 <0>        -0.3419
     26 C14         3.8144    2.7047    2.4528 C.2       1 <0>         0.5164
     27 O8          4.9175    3.2140    2.4431 O.2       1 <0>        -0.4735
     28 C15         3.1309    2.4016    1.1817 C.ar      1 <0>        -0.1021
     29 C16         3.7508    2.6996   -0.0350 C.ar      1 <0>        -0.0720
     30 C17         3.1079    2.4145   -1.2247 C.ar      1 <0>         0.0878
     31 C18         1.8437    1.8309   -1.2121 C.ar      1 <0>         0.0947
     32 C19         1.2237    1.5329   -0.0014 C.ar      1 <0>         0.0874
     33 C20         1.8596    1.8210    1.1914 C.ar      1 <0>        -0.0821
     34 O9         -0.0110    0.9628    0.0073 O.3       1 <0>        -0.4850
     35 O10         1.2142    1.5512   -2.3833 O.3       1 <0>        -0.4777
     36 O11         3.7104    2.7047   -2.4090 O.3       1 <0>        -0.4788
     37 O12         1.9111    3.3030    6.0151 O.3       1 <0>        -0.5554
     38 O13         4.2144    4.1352    7.3723 O.3       1 <0>        -0.5546
     39 O14         4.7871    0.5146    7.3503 O.3       1 <0>        -0.5414
     40 H6         11.4819   -0.1994    4.0524 H         1 <0>         0.1533
     41 H7          8.7631    2.8779    2.8049 H         1 <0>         0.1556
     42 H8         13.0898   -0.5928    1.5602 H         1 <0>         0.3924
     43 H9         12.3059    1.7034   -0.4378 H         1 <0>         0.3913
     44 H10         9.6442    3.3210   -0.0169 H         1 <0>         0.3924
     45 H11         7.7563    1.4458    6.9331 H         1 <0>         0.0942
     46 H12         6.8814    0.2695    5.9235 H         1 <0>         0.0942
     47 H13         4.7312    3.1526   -0.0454 H         1 <0>         0.1537
     48 H14         1.3764    1.5937    2.1302 H         1 <0>         0.1521
     49 H15         0.0021   -0.0041    0.0020 H         1 <0>         0.3995
     50 H16         0.6614    2.2722   -2.7146 H         1 <0>         0.3976
     51 H17         3.5145    3.5906   -2.7433 H         1 <0>         0.3942
     52 H18         1.3602    3.1769    5.2304 H         1 <0>         0.3944
     53 H19         3.4545    4.7333    7.3708 H         1 <0>         0.3967
     54 H20         4.2727    0.2527    8.1261 H         1 <0>         0.3864
@<TRIPOS>BOND
     1    1    6 ar
     2    1    2 ar
     3    1   40 1
     4    2    3 ar
     5    2   10 1
     6    3    4 ar
     7    3   41 1
     8    4    5 ar
     9    4    9 1
    10    5    6 ar
    11    5    8 1
    12    6    7 1
    13    7   42 1
    14    8   43 1
    15    9   44 1
    16   10   11 2
    17   10   12 1
    18   12   13 1
    19   13   14 1
    20   13   45 1
    21   13   46 1
    22   14   15 1
    23   14   24 1
    24   14   16 1
    25   16   17 1
    26   16   18 1
    27   16   39 1
    28   18   19 1
    29   18   20 1
    30   18   38 1
    31   20   21 1
    32   20   22 1
    33   20   37 1
    34   22   23 1
    35   22   24 1
    36   22   25 1
    37   25   26 1
    38   26   27 2
    39   26   28 1
    40   28   33 ar
    41   28   29 ar
    42   29   30 ar
    43   29   47 1
    44   30   31 ar
    45   30   36 1
    46   31   32 ar
    47   31   35 1
    48   32   33 ar
    49   32   34 1
    50   33   48 1
    51   34   49 1
    52   35   50 1
    53   36   51 1
    54   37   52 1
    55   38   53 1
    56   39   54 1
@<TRIPOS>MOLECULE
ZINC35458240
   59    61     0     0     0
SMALL
USER_CHARGES

@<TRIPOS>ATOM
      1 C1         -0.0169    1.3952    0.0097 C.ar      1 <0>        -0.0851
      2 C2          1.1671    2.0997    0.0022 C.ar      1 <0>        -0.1329
      3 C3          2.3804    1.4252   -0.0130 C.ar      1 <0>         0.0994
      4 C4          2.4077    0.0306   -0.0212 C.ar      1 <0>         0.0773
      5 C5          1.2264   -0.6835   -0.0138 C.ar      1 <0>        -0.0999
      6 C6          0.0021   -0.0041    0.0020 C.ar      1 <0>        -0.0774
      7 C7         -1.2592   -0.7582    0.0105 C.2       1 <0>         0.0079
      8 C8         -2.4393   -0.1007    0.0257 C.2       1 <0>        -0.1998
      9 C9         -3.6561   -0.8283    0.0339 C.2       1 <0>         0.5028
     10 O1         -3.6375   -2.0447    0.0272 O.2       1 <0>        -0.5172
     11 O2         -4.8347   -0.1717    0.0492 O.3       1 <0>        -0.3170
     12 C10        -6.0211   -0.9682    0.0567 C.3       1 <0>         0.1126
     13 H1         -5.8349   -1.9078   -0.4636 H         1 <0>         0.1097
     14 C11        -6.4397   -1.2539    1.5005 C.3       1 <0>         0.1159
     15 H2         -5.7309   -1.9482    1.9516 H         1 <0>         0.0782
     16 C12        -7.8139   -1.8562    1.5307 C.2       1 <0>        -0.1616
     17 C13        -8.6496   -1.8061    0.5435 C.2       1 <0>        -0.1572
     18 C14        -8.3575   -1.1473   -0.7728 C.3       1 <0>         0.0881
     19 H3         -9.2294   -0.5768   -1.0927 H         1 <0>         0.0948
     20 C15        -7.1565   -0.2087   -0.6412 C.3       1 <0>         0.1212
     21 H4         -7.4372    0.6596   -0.0450 H         1 <0>         0.0890
     22 O3         -6.7272    0.2122   -1.9375 O.3       1 <0>        -0.5398
     23 O4         -8.0626   -2.1487   -1.7486 O.3       1 <0>        -0.3364
     24 C16        -9.2080   -2.6225   -2.4596 C.3       1 <0>         0.2237
     25 H5         -9.9897   -2.8940   -1.7501 H         1 <0>         0.0562
     26 C17        -8.8224   -3.8503   -3.2888 C.3       1 <0>         0.0662
     27 H6         -8.4972   -4.6510   -2.6244 H         1 <0>         0.0676
     28 C18       -10.0395   -4.3158   -4.0939 C.3       1 <0>         0.0786
     29 H7        -10.8321   -4.6233   -3.4118 H         1 <0>         0.0767
     30 C19       -10.5345   -3.1577   -4.9658 C.3       1 <0>         0.0912
     31 H8        -11.4337   -3.4630   -5.5008 H         1 <0>         0.0726
     32 C20       -10.8540   -1.9566   -4.0718 C.3       1 <0>         0.1142
     33 H9        -11.6573   -2.2193   -3.3835 H         1 <0>         0.0776
     34 O5         -9.6888   -1.5945   -3.3280 O.3       1 <0>        -0.3685
     35 C21       -11.2922   -0.7761   -4.9408 C.3       1 <0>         0.0892
     36 O6        -11.7014    0.3064   -4.1025 O.3       1 <0>        -0.5705
     37 O7         -9.5188   -2.7989   -5.9047 O.3       1 <0>        -0.5277
     38 O8         -9.6698   -5.4180   -4.9250 O.3       1 <0>        -0.5476
     39 O9         -7.7598   -3.5093   -4.1813 O.3       1 <0>        -0.5218
     40 O10        -6.4443   -0.0328    2.2428 O.3       1 <0>        -0.5442
     41 O11         3.5987   -0.6259   -0.0370 O.3       1 <0>        -0.4853
     42 O12         3.5442    2.1252   -0.0204 O.3       1 <0>        -0.4863
     43 H10        -0.9592    1.9225    0.0260 H         1 <0>         0.1400
     44 H11         1.1513    3.1796    0.0078 H         1 <0>         0.1405
     45 H12         1.2463   -1.7633   -0.0201 H         1 <0>         0.1415
     46 H13        -1.2427   -1.8381    0.0045 H         1 <0>         0.1422
     47 H14        -2.4557    0.9791    0.0317 H         1 <0>         0.1432
     48 H15        -8.1248   -2.3635    2.4321 H         1 <0>         0.1221
     49 H16        -9.6172   -2.2673    0.6752 H         1 <0>         0.1164
     50 H17        -7.3980    0.6996   -2.4350 H         1 <0>         0.3844
     51 H18       -10.4588   -0.4563   -5.5663 H         1 <0>         0.0706
     52 H19       -12.1257   -1.0806   -5.5738 H         1 <0>         0.0632
     53 H20       -11.9930    1.0907   -4.5871 H         1 <0>         0.3843
     54 H21        -9.2637   -3.5158   -6.5014 H         1 <0>         0.3849
     55 H22        -9.3407   -6.1853   -4.4372 H         1 <0>         0.3864
     56 H23        -6.9574   -3.2013   -3.7381 H         1 <0>         0.3830
     57 H24        -6.7007   -0.1367    3.1694 H         1 <0>         0.3817
     58 H25         3.9520   -0.8208    0.8417 H         1 <0>         0.3897
     59 H26         3.8897    2.3232    0.8608 H         1 <0>         0.3917
@<TRIPOS>BOND
     1    1    6 ar
     2    1    2 ar
     3    1   43 1
     4    2    3 ar
     5    2   44 1
     6    3    4 ar
     7    3   42 1
     8    4    5 ar
     9    4   41 1
    10    5    6 ar
    11    5   45 1
    12    6    7 1
    13    7    8 2
    14    7   46 1
    15    8    9 1
    16    8   47 1
    17    9   10 2
    18    9   11 1
    19   11   12 1
    20   12   13 1
    21   12   20 1
    22   12   14 1
    23   14   15 1
    24   14   16 1
    25   14   40 1
    26   16   17 2
    27   16   48 1
    28   17   18 1
    29   17   49 1
    30   18   19 1
    31   18   20 1
    32   18   23 1
    33   20   21 1
    34   20   22 1
    35   22   50 1
    36   23   24 1
    37   24   25 1
    38   24   34 1
    39   24   26 1
    40   26   27 1
    41   26   28 1
    42   26   39 1
    43   28   29 1
    44   28   30 1
    45   28   38 1
    46   30   31 1
    47   30   32 1
    48   30   37 1
    49   32   33 1
    50   32   34 1
    51   32   35 1
    52   35   36 1
    53   35   51 1
    54   35   52 1
    55   36   53 1
    56   37   54 1
    57   38   55 1
    58   39   56 1
    59   40   57 1
    60   41   58 1
    61   42   59 1
@<TRIPOS>MOLECULE
ZINC38580948
   57    60     0     0     0
SMALL
USER_CHARGES

@<TRIPOS>ATOM
      1 C1         -0.0164    1.3602    0.0095 C.2       1 <0>         0.2430
      2 N1          1.2002    1.8207    0.0004 N.2       1 <0>        -0.4401
      3 C2          2.0747    0.7847   -0.0135 C.ar      1 <0>        -0.1487
      4 C3          3.4764    0.6773   -0.0279 C.ar      1 <0>         0.5487
      5 N2          4.0206   -0.5342   -0.0400 N.ar      1 <0>        -0.6260
      6 C4          3.2653   -1.6255   -0.0386 C.ar      1 <0>         0.6326
      7 N3          1.9436   -1.5695   -0.0253 N.ar      1 <0>        -0.6169
      8 C5          1.3163   -0.3973   -0.0126 C.ar      1 <0>         0.3529
      9 N4          0.0021   -0.0041    0.0020 N.pl3     1 <0>        -0.4859
     10 C6         -1.1670   -0.8870    0.0084 C.3       1 <0>         0.2801
     11 H1         -0.9663   -1.7714   -0.5962 H         1 <0>         0.1411
     12 C7         -1.5019   -1.3082    1.4645 C.3       1 <0>         0.0865
     13 H2         -0.6404   -1.1740    2.1188 H         1 <0>         0.1089
     14 C8         -2.6247   -0.3144    1.8175 C.3       1 <0>         0.0750
     15 H3         -2.2303    0.6555    2.1204 H         1 <0>         0.1403
     16 C9         -3.3542   -0.2505    0.4493 C.3       1 <0>        -0.0222
     17 H4         -3.8991   -1.1837    0.3064 H         1 <0>         0.1121
     18 O1         -2.3147   -0.1850   -0.5150 O.3       1 <0>        -0.3185
     19 C10        -4.3484    0.8918    0.4619 C.3       1 <0>         0.1025
     20 O2         -5.3777    0.5401    1.4177 O.3       1 <0>        -0.6920
     21 P1         -4.9709    0.0342    2.9056 P.3       1 <0>         2.3297
     22 S1         -4.7023    1.4997    4.0249 S.2       1 <0>        -1.2124
     23 O3         -3.5734   -0.8220    2.7624 O.3       1 <0>        -0.6395
     24 O4         -6.1320   -0.9078    3.5027 O.3       1 <0>        -0.7934
     25 O5         -1.9744   -2.6560    1.5130 O.3       1 <0>        -0.5263
     26 N5          3.8820   -2.8657   -0.0520 N.pl3     1 <0>        -0.6983
     27 C11         5.3441   -2.9566   -0.0674 C.3       1 <0>         0.1400
     28 C12         5.7635   -4.4279   -0.0802 C.3       1 <0>        -0.1353
     29 C13         7.2905   -4.5228   -0.0962 C.3       1 <0>        -0.1165
     30 C14         7.7100   -5.9941   -0.1090 C.3       1 <0>        -0.1188
     31 C15         9.2369   -6.0890   -0.1250 C.3       1 <0>        -0.1532
     32 C16         9.6564   -7.5604   -0.1378 C.3       1 <0>        -0.0102
     33 N6         11.1224   -7.6515   -0.1532 N.4       1 <0>        -0.6387
     34 N7          4.2719    1.8093   -0.0299 N.pl3     1 <0>        -0.8116
     35 H5         -0.9091    1.9679    0.0254 H         1 <0>         0.2205
     36 H6         -3.8536    1.8130    0.7693 H         1 <0>         0.1109
     37 H7         -4.7863    1.0155   -0.5286 H         1 <0>         0.1485
     38 H8         -6.9917   -0.4717    3.5797 H         1 <0>         0.4607
     39 H9         -1.3327   -3.3092    1.2022 H         1 <0>         0.3954
     40 H10         3.3458   -3.6740   -0.0513 H         1 <0>         0.4141
     41 H11         5.7296   -2.4611   -0.9585 H         1 <0>         0.0676
     42 H12         5.7477   -2.4714    0.8213 H         1 <0>         0.0678
     43 H13         5.3781   -4.9233    0.8109 H         1 <0>         0.0724
     44 H14         5.3600   -4.9131   -0.9689 H         1 <0>         0.0723
     45 H15         7.6760   -4.0274   -0.9873 H         1 <0>         0.0711
     46 H16         7.6941   -4.0377    0.7925 H         1 <0>         0.0713
     47 H17         7.3245   -6.4896    0.7821 H         1 <0>         0.0755
     48 H18         7.3064   -6.4793   -0.9977 H         1 <0>         0.0754
     49 H19         9.6224   -5.5936   -1.0161 H         1 <0>         0.0884
     50 H20         9.6405   -5.6039    0.7637 H         1 <0>         0.0885
     51 H21         9.2709   -8.0558    0.7533 H         1 <0>         0.1336
     52 H22         9.2528   -8.0455   -1.0265 H         1 <0>         0.1335
     53 H23        11.3991   -8.6218   -0.1616 H         1 <0>         0.4387
     54 H24        11.4793   -7.1929   -0.9780 H         1 <0>         0.4355
     55 H25         3.8635    2.6891   -0.0213 H         1 <0>         0.4233
     56 H26         5.2381    1.7231   -0.0398 H         1 <0>         0.4103
     57 H27        11.4960   -7.2024    0.6695 H         1 <0>         0.4356
@<TRIPOS>BOND
     1    1    9 1
     2    1    2 2
     3    1   35 1
     4    2    3 1
     5    3    8 ar
     6    3    4 ar
     7    4    5 ar
     8    4   34 1
     9    5    6 ar
    10    6    7 ar
    11    6   26 1
    12    7    8 ar
    13    8    9 1
    14    9   10 1
    15   10   11 1
    16   10   18 1
    17   10   12 1
    18   12   13 1
    19   12   14 1
    20   12   25 1
    21   14   15 1
    22   14   23 1
    23   14   16 1
    24   16   17 1
    25   16   18 1
    26   16   19 1
    27   19   20 1
    28   19   36 1
    29   19   37 1
    30   20   21 1
    31   21   22 2
    32   21   23 1
    33   21   24 1
    34   24   38 1
    35   25   39 1
    36   26   27 1
    37   26   40 1
    38   27   28 1
    39   27   41 1
    40   27   42 1
    41   28   29 1
    42   28   43 1
    43   28   44 1
    44   29   30 1
    45   29   45 1
    46   29   46 1
    47   30   31 1
    48   30   47 1
    49   30   48 1
    50   31   32 1
    51   31   49 1
    52   31   50 1
    53   32   33 1
    54   32   51 1
    55   32   52 1
    56   33   53 1
    57   33   54 1
    58   33   57 1
    59   34   55 1
    60   34   56 1
@<TRIPOS>MOLECULE
ZINC13477277
   68    71     0     0     0
SMALL
USER_CHARGES

@<TRIPOS>ATOM
      1 C1         -0.0168    1.3899    0.0097 C.ar      1 <0>        -0.0696
      2 C2          1.1682    2.0944    0.0022 C.ar      1 <0>        -0.1803
      3 C3          2.3813    1.4158   -0.0135 C.ar      1 <0>         0.2083
      4 C4          2.4025    0.0260   -0.0217 C.ar      1 <0>        -0.1815
      5 C5          1.2198   -0.6826   -0.0137 C.ar      1 <0>        -0.0681
      6 C6          0.0021   -0.0041    0.0020 C.ar      1 <0>        -0.0807
      7 C7         -1.2716   -0.7642    0.0106 C.ar      1 <0>        -0.0872
      8 C8         -2.4894   -0.0857    0.0205 C.ar      1 <0>        -0.0673
      9 C9         -3.6721   -0.7942    0.0280 C.ar      1 <0>        -0.1845
     10 C10        -3.6508   -2.1841    0.0261 C.ar      1 <0>         0.2146
     11 C11        -2.4377   -2.8627    0.0162 C.ar      1 <0>        -0.1849
     12 C12        -1.2527   -2.1581    0.0029 C.ar      1 <0>        -0.0663
     13 N1         -4.8498   -2.8996    0.0346 N.pl3     1 <0>        -0.7453
     14 C13        -4.8286   -4.3644    0.0326 C.3       1 <0>         0.2807
     15 H1         -3.8888   -4.7150    0.4591 H         1 <0>         0.1275
     16 C14        -5.9972   -4.8930    0.8685 C.3       1 <0>         0.0445
     17 H2         -5.9587   -5.9819    0.9010 H         1 <0>         0.0923
     18 C15        -7.3155   -4.4463    0.2290 C.3       1 <0>         0.0843
     19 H3         -7.3764   -3.3581    0.2413 H         1 <0>         0.0683
     20 C16        -7.3632   -4.9459   -1.2183 C.3       1 <0>         0.0885
     21 H4         -8.2731   -4.5855   -1.6982 H         1 <0>         0.0810
     22 C17        -6.1418   -4.4152   -1.9736 C.3       1 <0>         0.1020
     23 H5         -6.1747   -3.3260   -1.9983 H         1 <0>         0.0833
     24 O1         -4.9502   -4.8410   -1.3091 O.3       1 <0>        -0.3573
     25 C18        -6.1506   -4.9586   -3.4038 C.3       1 <0>         0.0888
     26 O2         -5.0770   -4.3725   -4.1426 O.3       1 <0>        -0.5653
     27 O3         -7.3503   -6.3747   -1.2309 O.3       1 <0>        -0.5466
     28 O4         -8.4125   -4.9948    0.9622 O.3       1 <0>        -0.5583
     29 O5         -5.9086   -4.3723    2.1963 O.3       1 <0>        -0.5550
     30 N2          3.5803    2.1314   -0.0216 N.pl3     1 <0>        -0.7240
     31 C19         4.8593    1.4173   -0.0381 C.3       1 <0>         0.2844
     32 H6          4.7184    0.4293   -0.4764 H         1 <0>         0.0893
     33 C20         5.8733    2.2055   -0.8714 C.3       1 <0>         0.0412
     34 H7          5.5244    2.2725   -1.9019 H         1 <0>         0.0783
     35 C21         7.2240    1.4838   -0.8342 C.3       1 <0>         0.0828
     36 H8          7.1245    0.5001   -1.2931 H         1 <0>         0.0827
     37 C22         7.6665    1.3267    0.6238 C.3       1 <0>         0.0912
     38 H9          7.8138    2.3112    1.0679 H         1 <0>         0.0842
     39 C23         6.5833    0.5725    1.3993 C.3       1 <0>         0.1118
     40 H10         6.4651   -0.4267    0.9800 H         1 <0>         0.0761
     41 O6          5.3462    1.2808    1.2984 O.3       1 <0>        -0.3685
     42 C24         6.9908    0.4637    2.8700 C.3       1 <0>         0.0905
     43 O7          6.0384   -0.3393    3.5701 O.3       1 <0>        -0.5660
     44 O8          8.8911    0.5919    0.6746 O.3       1 <0>        -0.5568
     45 O9          8.1949    2.2495   -1.5505 O.3       1 <0>        -0.5493
     46 O10         6.0178    3.5199   -0.3297 O.3       1 <0>        -0.5373
     47 H11        -0.9591    1.9175    0.0260 H         1 <0>         0.1253
     48 H12         1.1541    3.1743    0.0081 H         1 <0>         0.1223
     49 H13         3.3461   -0.4992   -0.0346 H         1 <0>         0.1200
     50 H14         1.2368   -1.7624   -0.0204 H         1 <0>         0.1248
     51 H15        -2.5064    0.9942    0.0227 H         1 <0>         0.1237
     52 H16        -4.6157   -0.2690    0.0356 H         1 <0>         0.1196
     53 H17        -2.4235   -3.9426    0.0151 H         1 <0>         0.1212
     54 H18        -0.3104   -2.6858   -0.0092 H         1 <0>         0.1236
     55 H19        -5.6967   -2.4268    0.0418 H         1 <0>         0.3958
     56 H20        -6.0279   -6.0415   -3.3818 H         1 <0>         0.0670
     57 H21        -7.0985   -4.7100   -3.8811 H         1 <0>         0.0608
     58 H22        -5.0216   -4.6721   -5.0604 H         1 <0>         0.3829
     59 H23        -8.0953   -6.7789   -0.7654 H         1 <0>         0.3880
     60 H24        -8.4401   -4.7240    1.8901 H         1 <0>         0.3943
     61 H25        -5.0949   -4.6132    2.6598 H         1 <0>         0.3881
     62 H26         3.5663    3.1012   -0.0163 H         1 <0>         0.3993
     63 H27         7.9762    0.0033    2.9409 H         1 <0>         0.0747
     64 H28         7.0222    1.4592    3.3129 H         1 <0>         0.0551
     65 H29         6.2339   -0.4514    4.5104 H         1 <0>         0.3832
     66 H30         9.6213    1.0110    0.1988 H         1 <0>         0.3925
     67 H31         7.9743    2.3929   -2.4810 H         1 <0>         0.3858
     68 H32         5.1981    4.0329   -0.3184 H         1 <0>         0.3759
@<TRIPOS>BOND
     1    1    6 ar
     2    1    2 ar
     3    1   47 1
     4    2    3 ar
     5    2   48 1
     6    3    4 ar
     7    3   30 1
     8    4    5 ar
     9    4   49 1
    10    5    6 ar
    11    5   50 1
    12    6    7 1
    13    7   12 ar
    14    7    8 ar
    15    8    9 ar
    16    8   51 1
    17    9   10 ar
    18    9   52 1
    19   10   11 ar
    20   10   13 1
    21   11   12 ar
    22   11   53 1
    23   12   54 1
    24   13   14 1
    25   13   55 1
    26   14   15 1
    27   14   24 1
    28   14   16 1
    29   16   17 1
    30   16   18 1
    31   16   29 1
    32   18   19 1
    33   18   20 1
    34   18   28 1
    35   20   21 1
    36   20   22 1
    37   20   27 1
    38   22   23 1
    39   22   24 1
    40   22   25 1
    41   25   26 1
    42   25   56 1
    43   25   57 1
    44   26   58 1
    45   27   59 1
    46   28   60 1
    47   29   61 1
    48   30   31 1
    49   30   62 1
    50   31   32 1
    51   31   41 1
    52   31   33 1
    53   33   34 1
    54   33   35 1
    55   33   46 1
    56   35   36 1
    57   35   37 1
    58   35   45 1
    59   37   38 1
    60   37   39 1
    61   37   44 1
    62   39   40 1
    63   39   41 1
    64   39   42 1
    65   42   43 1
    66   42   63 1
    67   42   64 1
    68   43   65 1
    69   44   66 1
    70   45   67 1
    71   46   68 1
@<TRIPOS>MOLECULE
ZINC17176568
   42    44     0     0     0
SMALL
USER_CHARGES
3-amino-1-[[2-[(3R)-5-bromo-3-hydroxy-2-oxo-indolin-3-yl]-1-phenyl-ethylidene]amino]urea
@<TRIPOS>ATOM
      1 C1         -1.2978   -4.6661   -1.8396 C.ar      1 <0>        -0.1083
      2 C2         -0.5237   -5.0940   -0.7755 C.ar      1 <0>        -0.1215
      3 C3         -0.2462   -4.2364    0.2686 C.ar      1 <0>        -0.0794
      4 C4         -0.7486   -2.9333    0.2500 C.ar      1 <0>        -0.0227
      5 C5         -1.5337   -2.5098   -0.8249 C.ar      1 <0>        -0.0984
      6 C6         -1.7984   -3.3764   -1.8649 C.ar      1 <0>        -0.1196
      7 C7         -0.4565   -2.0106    1.3630 C.2       1 <0>         0.1312
      8 N1          0.3896   -2.3534    2.2847 N.2       1 <0>        -0.1896
      9 N2          0.7418   -1.4400    3.2870 N.am      1 <0>        -0.5638
     10 C8          1.6979   -1.7575    4.1823 C.2       1 <0>         0.7401
     11 O1          2.0036   -0.9648    5.0522 O.2       1 <0>        -0.5841
     12 N3          2.3151   -2.9537    4.1134 N.am      1 <0>        -0.5739
     13 N4          1.9716   -3.8442    3.1362 N.3       1 <0>        -0.5877
     14 C9         -1.1411   -0.6697    1.4296 C.3       1 <0>        -0.0966
     15 C10        -2.3469   -0.7586    2.3671 C.3       1 <0>         0.1641
     16 C11        -3.0465    0.5780    2.4582 C.ar      1 <0>        -0.1836
     17 C12        -2.6389    1.8205    2.8890 C.ar      1 <0>        -0.0125
     18 C13        -3.5227    2.8861    2.8583 C.ar      1 <0>        -0.1188
     19 C14        -4.8097    2.6989    2.3854 C.ar      1 <0>        -0.0403
     20 C15        -5.2181    1.4559    1.9487 C.ar      1 <0>        -0.1357
     21 C16        -4.3356    0.3778    1.9814 C.ar      1 <0>         0.1737
     22 N5         -4.5081   -0.9541    1.6017 N.am      1 <0>        -0.6607
     23 C17        -3.3974   -1.6856    1.7937 C.2       1 <0>         0.5009
     24 O2         -3.2618   -2.8665    1.5522 O.2       1 <0>        -0.4430
     25 Br1        -2.9709    4.5933    3.4557 Br        1 <0>        -0.0336
     26 O3         -1.9426   -1.2015    3.6642 O.3       1 <0>        -0.5161
     27 H1         -1.5120   -5.3418   -2.6544 H         1 <0>         0.1222
     28 H2         -0.1362   -6.1020   -0.7622 H         1 <0>         0.1249
     29 H3          0.3584   -4.5717    1.0983 H         1 <0>         0.1372
     30 H4         -1.9288   -1.5048   -0.8438 H         1 <0>         0.1154
     31 H5         -2.4016   -3.0489   -2.6988 H         1 <0>         0.1227
     32 H6          0.2977   -0.5791    3.3365 H         1 <0>         0.4035
     33 H7          3.0032   -3.1822    4.7578 H         1 <0>         0.4137
     34 H8          2.0689   -3.4316    2.2206 H         1 <0>         0.3487
     35 H9          2.5155   -4.6908    3.2110 H         1 <0>         0.3460
     36 H10        -1.4762   -0.3829    0.4328 H         1 <0>         0.1103
     37 H11        -0.4420    0.0768    1.8066 H         1 <0>         0.0981
     38 H12        -1.6321    1.9632    3.2530 H         1 <0>         0.1416
     39 H13        -5.4981    3.5306    2.3584 H         1 <0>         0.1456
     40 H14        -6.2242    1.3178    1.5810 H         1 <0>         0.1410
     41 H15        -5.3348   -1.3108    1.2407 H         1 <0>         0.4190
     42 H16        -2.6726   -1.3044    4.2899 H         1 <0>         0.3902
@<TRIPOS>BOND
     1    1    6 ar
     2    1    2 ar
     3    1   27 1
     4    2    3 ar
     5    2   28 1
     6    3    4 ar
     7    3   29 1
     8    4    5 ar
     9    4    7 1
    10    5    6 ar
    11    5   30 1
    12    6   31 1
    13    7    8 2
    14    7   14 1
    15    8    9 1
    16    9   10 am
    17    9   32 1
    18   10   11 2
    19   10   12 am
    20   12   13 1
    21   12   33 1
    22   13   34 1
    23   13   35 1
    24   14   15 1
    25   14   36 1
    26   14   37 1
    27   15   23 1
    28   15   16 1
    29   15   26 1
    30   16   21 ar
    31   16   17 ar
    32   17   18 ar
    33   17   38 1
    34   18   19 ar
    35   18   25 1
    36   19   20 ar
    37   19   39 1
    38   20   21 ar
    39   20   40 1
    40   21   22 1
    41   22   23 am
    42   22   41 1
    43   23   24 2
    44   26   42 1
@<TRIPOS>MOLECULE
ZINC40680047
   51    53     0     0     0
SMALL
USER_CHARGES

@<TRIPOS>ATOM
      1 C1          1.2392   -0.4114    1.7763 C.3       1 <0>        -0.1556
      2 C2          0.5801   -1.5706    1.0263 C.3       1 <0>        -0.1274
      3 C3          1.3179   -1.8100   -0.2925 C.3       1 <0>        -0.1133
      4 C4          0.6587   -2.9692   -1.0426 C.3       1 <0>        -0.0917
      5 C5          1.3855   -3.2050   -2.3416 C.ar      1 <0>        -0.0665
      6 C6          0.9890   -2.5360   -3.4851 C.ar      1 <0>        -0.0800
      7 C7          1.6528   -2.7497   -4.6771 C.ar      1 <0>        -0.1162
      8 C8          2.7199   -3.6378   -4.7266 C.ar      1 <0>         0.1021
      9 C9          3.1155   -4.3082   -3.5760 C.ar      1 <0>        -0.1691
     10 C10         2.4509   -4.0855   -2.3860 C.ar      1 <0>        -0.0804
     11 N1          3.3935   -3.8568   -5.9313 N.pl3     1 <0>        -0.6364
     12 C11         4.7788   -3.9762   -5.9415 C.ar      1 <0>         0.4018
     13 C12         5.4521   -4.3198   -7.1152 C.ar      1 <0>         0.0517
     14 C13         6.8434   -4.4256   -7.0701 C.ar      1 <0>         0.4428
     15 N2          7.4703   -4.1967   -5.9186 N.ar      1 <0>        -0.5159
     16 C14         6.7966   -3.8746   -4.8330 C.ar      1 <0>         0.3956
     17 N3          5.4840   -3.7592   -4.8337 N.ar      1 <0>        -0.5429
     18 N4          7.5626   -4.7653   -8.2098 N.pl3     1 <0>        -0.4518
     19 N5          8.9586   -4.8685   -8.1523 N.pl3     1 <0>        -0.5354
     20 C15         9.6814   -5.2098   -9.2978 C.ar      1 <0>         0.1928
     21 C16         9.0181   -5.4416  -10.4961 C.ar      1 <0>        -0.1951
     22 C17         9.7359   -5.7784  -11.6268 C.ar      1 <0>        -0.0674
     23 C18        11.1133   -5.8855  -11.5670 C.ar      1 <0>        -0.1548
     24 C19        11.7767   -5.6558  -10.3756 C.ar      1 <0>        -0.0636
     25 C20        11.0656   -5.3126   -9.2425 C.ar      1 <0>        -0.1688
     26 N6          4.7492   -4.5530   -8.3082 N.pl3     1 <0>        -0.8536
     27 H1          2.2809   -0.6574    1.9823 H         1 <0>         0.0538
     28 H2          1.1928    0.4900    1.1652 H         1 <0>         0.0543
     29 H3          0.7136   -0.2409    2.7159 H         1 <0>         0.0580
     30 H4          0.6265   -2.4720    1.6374 H         1 <0>         0.0641
     31 H5         -0.4616   -1.3246    0.8203 H         1 <0>         0.0644
     32 H6          1.2715   -0.9086   -0.9036 H         1 <0>         0.0644
     33 H7          2.3596   -2.0560   -0.0866 H         1 <0>         0.0635
     34 H8          0.7052   -3.8706   -0.4315 H         1 <0>         0.0805
     35 H9         -0.3830   -2.7232   -1.2485 H         1 <0>         0.0811
     36 H10         0.1592   -1.8459   -3.4460 H         1 <0>         0.1405
     37 H11         1.3425   -2.2272   -5.5700 H         1 <0>         0.1373
     38 H12         3.9445   -4.9995   -3.6111 H         1 <0>         0.1266
     39 H13         2.7610   -4.6027   -1.4901 H         1 <0>         0.1400
     40 H14         2.8947   -3.9255   -6.7603 H         1 <0>         0.4352
     41 H15         7.3372   -3.6960   -3.9153 H         1 <0>         0.2470
     42 H16         7.0980   -4.9308   -9.0451 H         1 <0>         0.4418
     43 H17         9.4232   -4.7029   -7.3171 H         1 <0>         0.4424
     44 H18         7.9423   -5.3589  -10.5433 H         1 <0>         0.1093
     45 H19         9.2208   -5.9588  -12.5588 H         1 <0>         0.1299
     46 H20        11.6721   -6.1494  -12.4527 H         1 <0>         0.1296
     47 H21        12.8525   -5.7406  -10.3322 H         1 <0>         0.1343
     48 H22        11.5847   -5.1286   -8.3135 H         1 <0>         0.1311
     49 H23         3.7824   -4.4760   -8.3244 H         1 <0>         0.4111
     50 H24         5.2304   -4.7910   -9.1161 H         1 <0>         0.4117
     51 H25         5.0249   -3.5161   -4.0145 H         1 <0>         0.4471
@<TRIPOS>BOND
     1    1    2 1
     2    1   27 1
     3    1   28 1
     4    1   29 1
     5    2    3 1
     6    2   30 1
     7    2   31 1
     8    3    4 1
     9    3   32 1
    10    3   33 1
    11    4    5 1
    12    4   34 1
    13    4   35 1
    14    5   10 ar
    15    5    6 ar
    16    6    7 ar
    17    6   36 1
    18    7    8 ar
    19    7   37 1
    20    8    9 ar
    21    8   11 1
    22    9   10 ar
    23    9   38 1
    24   10   39 1
    25   11   12 1
    26   11   40 1
    27   12   17 ar
    28   12   13 ar
    29   13   14 ar
    30   13   26 1
    31   14   15 ar
    32   14   18 1
    33   15   16 ar
    34   16   17 ar
    35   16   41 1
    36   17   51 1
    37   18   19 1
    38   18   42 1
    39   19   20 1
    40   19   43 1
    41   20   25 ar
    42   20   21 ar
    43   21   22 ar
    44   21   44 1
    45   22   23 ar
    46   22   45 1
    47   23   24 ar
    48   23   46 1
    49   24   25 ar
    50   24   47 1
    51   25   48 1
    52   26   49 1
    53   26   50 1
@<TRIPOS>MOLECULE
ZINC43096472
   36    37     0     0     0
SMALL
USER_CHARGES

@<TRIPOS>ATOM
      1 C1          0.7209    0.0424   -1.1576 C.3       1 <0>        -0.1923
      2 C2         -0.0701    0.1754    0.1453 C.3       1 <0>         0.0476
      3 H1         -1.0668   -0.2444    0.0097 H         1 <0>         0.1642
      4 C3          0.6543   -0.5804    1.2610 C.3       1 <0>        -0.0674
      5 H2          0.1443   -0.4061    2.2085 H         1 <0>         0.1457
      6 C4          0.6509   -2.0556    0.9528 C.ar      1 <0>        -0.0692
      7 C5          1.7351   -2.6314    0.3172 C.ar      1 <0>        -0.1053
      8 C6          1.7323   -3.9845    0.0348 C.ar      1 <0>        -0.0924
      9 C7          0.6454   -4.7626    0.3879 C.ar      1 <0>        -0.0912
     10 C8         -0.4389   -4.1878    1.0233 C.ar      1 <0>        -0.0827
     11 C9         -0.4344   -2.8345    1.3108 C.ar      1 <0>        -0.0720
     12 Br1        -1.9147   -2.0487    2.1866 Br        1 <0>        -0.0406
     13 S1          2.3659    0.0089    1.3783 S.3       1 <0>         0.0055
     14 C10         2.9873   -0.7726    2.8301 C.2       1 <0>         0.3966
     15 N1          4.2927   -0.5953    3.1767 N.am      1 <0>        -0.6181
     16 H3          4.8691   -0.0430    2.6257 H         1 <0>         0.4201
     17 C11         4.7855   -1.1863    4.2852 C.2       1 <0>         0.5410
     18 O1          5.9543   -1.0323    4.6033 O.2       1 <0>        -0.5295
     19 C12         3.9352   -1.9774    5.0636 C.2       1 <0>        -0.3777
     20 C13         2.6133   -2.1263    4.6673 C.2       1 <0>         0.4545
     21 N2          2.1788   -1.5120    3.5613 N.2       1 <0>        -0.5539
     22 N3          1.7490   -2.9009    5.4147 N.pl3     1 <0>        -0.8235
     23 N4         -0.1817    1.5946    0.5077 N.4       1 <0>        -0.6376
     24 H4          0.8617   -1.0130   -1.3911 H         1 <0>         0.1176
     25 H5          0.1715    0.5233   -1.9669 H         1 <0>         0.0992
     26 H6          1.6930    0.5220   -1.0431 H         1 <0>         0.0901
     27 H7          2.5842   -2.0239    0.0409 H         1 <0>         0.1454
     28 H8          2.5794   -4.4340   -0.4621 H         1 <0>         0.1392
     29 H9          0.6435   -5.8197    0.1667 H         1 <0>         0.1412
     30 H10        -1.2879   -4.7956    1.2990 H         1 <0>         0.1418
     31 H11         4.3000   -2.4637    5.9562 H         1 <0>         0.1560
     32 H12         2.0651   -3.3424    6.2185 H         1 <0>         0.4212
     33 H13         0.8256   -3.0038    5.1360 H         1 <0>         0.4078
     34 H14        -0.6593    2.0931   -0.2282 H         1 <0>         0.4446
     35 H15        -0.7033    1.6823    1.3669 H         1 <0>         0.4398
     36 H16         0.7410    1.9833    0.6332 H         1 <0>         0.4342
@<TRIPOS>BOND
     1    1    2 1
     2    1   24 1
     3    1   25 1
     4    1   26 1
     5    2    3 1
     6    2    4 1
     7    2   23 1
     8    4    5 1
     9    4    6 1
    10    4   13 1
    11    6   11 ar
    12    6    7 ar
    13    7    8 ar
    14    7   27 1
    15    8    9 ar
    16    8   28 1
    17    9   10 ar
    18    9   29 1
    19   10   11 ar
    20   10   30 1
    21   11   12 1
    22   13   14 1
    23   14   21 2
    24   14   15 1
    25   15   16 1
    26   15   17 am
    27   17   18 2
    28   17   19 1
    29   19   20 2
    30   19   31 1
    31   20   21 1
    32   20   22 1
    33   22   32 1
    34   22   33 1
    35   23   34 1
    36   23   35 1
    37   23   36 1
@<TRIPOS>MOLECULE
ZINC44461716
   65    65     0     0     0
SMALL
USER_CHARGES

@<TRIPOS>ATOM
      1 C1          1.8468   -2.1480    2.4396 C.3       1 <0>        -0.1545
      2 C2          1.0105   -1.7527    1.2209 C.3       1 <0>        -0.1297
      3 C3          1.6458   -2.3340   -0.0439 C.3       1 <0>        -0.1193
      4 C4          0.8094   -1.9387   -1.2626 C.3       1 <0>        -0.1218
      5 C5          1.5134   -2.4068   -2.5378 C.3       1 <0>        -0.0826
      6 H1          2.5318   -2.0185   -2.5541 H         1 <0>         0.0832
      7 C6          0.7512   -1.8908   -3.7599 C.3       1 <0>        -0.1193
      8 C7          0.8377   -0.3640   -3.8077 C.3       1 <0>        -0.1583
      9 C8          1.5503   -3.9361   -2.5680 C.3       1 <0>         0.0579
     10 O1          2.3083   -4.3721   -3.6981 O.3       1 <0>        -0.3038
     11 C9          2.4395   -5.7142   -3.8730 C.ar      1 <0>         0.1343
     12 C10         1.8454   -6.5916   -2.9777 C.ar      1 <0>        -0.1517
     13 C11         1.9790   -7.9548   -3.1550 C.ar      1 <0>        -0.0916
     14 C12         2.7069   -8.4465   -4.2286 C.ar      1 <0>         0.0740
     15 C13         3.3004   -7.5694   -5.1239 C.ar      1 <0>        -0.1731
     16 C14         3.1624   -6.2059   -4.9495 C.ar      1 <0>        -0.1141
     17 C15         3.8026   -5.2527   -5.9256 C.3       1 <0>        -0.0972
     18 C16         5.1700   -4.8197   -5.3933 C.3       1 <0>         0.0340
     19 H2          5.0553   -4.4044   -4.3920 H         1 <0>         0.1449
     20 C17         5.7654   -3.7582   -6.3205 C.3       1 <0>        -0.1858
     21 N1          6.0660   -5.9827   -5.3413 N.4       1 <0>        -0.6391
     22 O2          2.8388   -9.7887   -4.4029 O.3       1 <0>        -0.3367
     23 C18         3.6019  -10.2246   -5.5297 C.3       1 <0>         0.0175
     24 C19         1.3345   -8.9079   -2.1818 C.3       1 <0>        -0.1019
     25 C20         2.3538   -9.3153   -1.1160 C.3       1 <0>         0.0363
     26 H3          2.7622   -8.4220   -0.6435 H         1 <0>         0.1402
     27 C21         1.6674  -10.1828   -0.0590 C.3       1 <0>        -0.1874
     28 N2          3.4411  -10.0776   -1.7442 N.4       1 <0>        -0.6340
     29 H4          1.8838   -3.2346    2.5179 H         1 <0>         0.0494
     30 H5          2.8582   -1.7571    2.3284 H         1 <0>         0.0540
     31 H6          1.3942   -1.7339    3.3406 H         1 <0>         0.0597
     32 H7         -0.0009   -2.1436    1.3320 H         1 <0>         0.0633
     33 H8          0.9735   -0.6662    1.1425 H         1 <0>         0.0668
     34 H9          2.6572   -1.9431   -0.1550 H         1 <0>         0.0630
     35 H10         1.6827   -3.4205    0.0345 H         1 <0>         0.0538
     36 H11        -0.1725   -2.4072   -1.1968 H         1 <0>         0.0685
     37 H12         0.6941   -0.8551   -1.2881 H         1 <0>         0.0840
     38 H13         1.1914   -2.3082   -4.6655 H         1 <0>         0.0647
     39 H14        -0.2936   -2.1935   -3.6909 H         1 <0>         0.0644
     40 H15         0.3767   -0.0025   -4.7269 H         1 <0>         0.0597
     41 H16         0.3145    0.0566   -2.9490 H         1 <0>         0.0605
     42 H17         1.8837   -0.0583   -3.7812 H         1 <0>         0.0551
     43 H18         2.0148   -4.3064   -1.6541 H         1 <0>         0.0705
     44 H19         0.5337   -4.3226   -2.6413 H         1 <0>         0.0705
     45 H20         1.2788   -6.2088   -2.1418 H         1 <0>         0.1504
     46 H21         3.8671   -7.9522   -5.9597 H         1 <0>         0.1438
     47 H22         3.9277   -5.7483   -6.8883 H         1 <0>         0.1017
     48 H23         3.1662   -4.3763   -6.0480 H         1 <0>         0.1311
     49 H24         5.1007   -2.8953   -6.3590 H         1 <0>         0.1118
     50 H25         6.7397   -3.4497   -5.9412 H         1 <0>         0.0873
     51 H26         5.8802   -4.1735   -7.3217 H         1 <0>         0.0854
     52 H27         6.1722   -6.3671   -6.2682 H         1 <0>         0.4334
     53 H28         6.9678   -5.6971   -4.9903 H         1 <0>         0.4394
     54 H29         3.1414   -9.8542   -6.4456 H         1 <0>         0.0711
     55 H30         4.6181   -9.8381   -5.4519 H         1 <0>         0.0577
     56 H31         3.6282  -11.3141   -5.5512 H         1 <0>         0.1177
     57 H32         0.4847   -8.4202   -1.7042 H         1 <0>         0.1249
     58 H33         0.9919   -9.7949   -2.7147 H         1 <0>         0.1103
     59 H34         1.2590  -11.0761   -0.5314 H         1 <0>         0.0869
     60 H35         2.3935  -10.4730    0.7004 H         1 <0>         0.0878
     61 H36         0.8606   -9.6172    0.4072 H         1 <0>         0.1103
     62 H37         3.8938   -9.5055   -2.4413 H         1 <0>         0.4236
     63 H38         4.1133  -10.3462   -1.0413 H         1 <0>         0.4352
     64 H39         5.6733   -6.6827   -4.7299 H         1 <0>         0.4244
     65 H40         3.0630  -10.9045   -2.1816 H         1 <0>         0.4376
@<TRIPOS>BOND
     1    1    2 1
     2    1   29 1
     3    1   30 1
     4    1   31 1
     5    2    3 1
     6    2   32 1
     7    2   33 1
     8    3    4 1
     9    3   34 1
    10    3   35 1
    11    4    5 1
    12    4   36 1
    13    4   37 1
    14    5    6 1
    15    5    7 1
    16    5    9 1
    17    7    8 1
    18    7   38 1
    19    7   39 1
    20    8   40 1
    21    8   41 1
    22    8   42 1
    23    9   10 1
    24    9   43 1
    25    9   44 1
    26   10   11 1
    27   11   16 ar
    28   11   12 ar
    29   12   13 ar
    30   12   45 1
    31   13   14 ar
    32   13   24 1
    33   14   15 ar
    34   14   22 1
    35   15   16 ar
    36   15   46 1
    37   16   17 1
    38   17   18 1
    39   17   47 1
    40   17   48 1
    41   18   19 1
    42   18   20 1
    43   18   21 1
    44   20   49 1
    45   20   50 1
    46   20   51 1
    47   21   52 1
    48   21   53 1
    49   21   64 1
    50   22   23 1
    51   23   54 1
    52   23   55 1
    53   23   56 1
    54   24   25 1
    55   24   57 1
    56   24   58 1
    57   25   26 1
    58   25   27 1
    59   25   28 1
    60   27   59 1
    61   27   60 1
    62   27   61 1
    63   28   62 1
    64   28   63 1
    65   28   65 1
@<TRIPOS>MOLECULE
ZINC64428705
   48    50     0     0     0
SMALL
USER_CHARGES

@<TRIPOS>ATOM
      1 C1         -0.0187    1.5258    0.0104 C.3       1 <0>        -0.1544
      2 C2          0.0021   -0.0041    0.0020 C.3       1 <0>         0.0605
      3 O1          0.6932   -0.4774    1.1597 O.3       1 <0>        -0.3460
      4 C3          0.8006   -1.8076    1.3039 C.2       1 <0>         0.4770
      5 O2          0.3237   -2.5457    0.4746 O.2       1 <0>        -0.4745
      6 C4          1.5162   -2.3806    2.5000 C.3       1 <0>        -0.1265
      7 S1          1.4925   -4.1921    2.4083 S.3       1 <0>        -0.0550
      8 C5          2.3813   -4.7187    3.8994 C.3       1 <0>         0.2256
      9 H1          2.4393   -5.8063    3.9421 H         1 <0>         0.1637
     10 N1          3.7440   -4.1256    3.9270 N.3       1 <0>        -0.4511
     11 N2          4.0612   -4.1349    5.3653 N.3       1 <0>        -0.5116
     12 C6          2.7624   -3.8384    6.0121 C.3       1 <0>         0.1666
     13 H2          2.6961   -2.7750    6.2421 H         1 <0>         0.1042
     14 O3          1.7340   -4.2042    5.0773 O.3       1 <0>        -0.3625
     15 C7          2.6195   -4.6591    7.2954 C.3       1 <0>         0.0389
     16 H3          2.6668   -5.7212    7.0546 H         1 <0>         0.1670
     17 C8          1.2750   -4.3450    7.9546 C.3       1 <0>        -0.1023
     18 C9          1.0802   -5.2415    9.1502 C.2       1 <0>         0.0011
     19 C10         1.3652   -4.9503   10.4400 C.ar      1 <0>        -0.1476
     20 C11         1.9217   -3.7581   11.0906 C.ar      1 <0>        -0.0784
     21 C12         2.0970   -3.7642   12.4316 C.ar      1 <0>        -0.1004
     22 C13         1.7619   -4.8780   13.2137 C.ar      1 <0>         0.0469
     23 C14         1.2461   -6.0094   12.6883 C.ar      1 <0>        -0.1915
     24 C15         1.0190   -6.1132   11.2882 C.ar      1 <0>         0.3305
     25 N3          0.5387   -7.0854   10.5515 N.pl3     1 <0>        -0.5611
     26 C16         0.5202   -6.6464    9.1517 C.3       1 <0>         0.0599
     27 N4          3.7095   -4.3175    8.2191 N.4       1 <0>        -0.6382
     28 H4          1.0039    1.9031    0.0027 H         1 <0>         0.0693
     29 H5         -0.5459    1.8868   -0.8726 H         1 <0>         0.0889
     30 H6         -0.5289    1.8773    0.9072 H         1 <0>         0.0679
     31 H7         -1.0205   -0.3814    0.0098 H         1 <0>         0.0749
     32 H8          0.5123   -0.3556   -0.8948 H         1 <0>         0.0762
     33 H9          2.5484   -2.0306    2.5079 H         1 <0>         0.1236
     34 H10         1.0156   -2.0564    3.4125 H         1 <0>         0.1305
     35 H11         3.7359   -3.1840    3.5645 H         1 <0>         0.3417
     36 H12         4.7461   -3.4285    5.5891 H         1 <0>         0.3693
     37 H13         1.2623   -3.3034    8.2756 H         1 <0>         0.1321
     38 H14         0.4709   -4.5144    7.2386 H         1 <0>         0.1639
     39 H15         2.1875   -2.8890   10.5071 H         1 <0>         0.1589
     40 H16         2.5064   -2.8880   12.9124 H         1 <0>         0.1670
     41 H17         1.9234   -4.8292   14.2804 H         1 <0>         0.1710
     42 H18         1.0048   -6.8404   13.3345 H         1 <0>         0.1704
     43 H19        -0.5007   -6.6443    8.7698 H         1 <0>         0.1868
     44 H20         1.1470   -7.3013    8.5464 H         1 <0>         0.1788
     45 H21         3.6657   -3.3344    8.4420 H         1 <0>         0.4365
     46 H22         3.6153   -4.8587    9.0654 H         1 <0>         0.4338
     47 H23         0.2414   -7.9491   10.8778 H         1 <0>         0.4648
     48 H24         4.5962   -4.5246    7.7843 H         1 <0>         0.4531
@<TRIPOS>BOND
     1    1    2 1
     2    1   28 1
     3    1   29 1
     4    1   30 1
     5    2    3 1
     6    2   31 1
     7    2   32 1
     8    3    4 1
     9    4    5 2
    10    4    6 1
    11    6    7 1
    12    6   33 1
    13    6   34 1
    14    7    8 1
    15    8    9 1
    16    8   14 1
    17    8   10 1
    18   10   11 1
    19   10   35 1
    20   11   12 1
    21   11   36 1
    22   12   13 1
    23   12   14 1
    24   12   15 1
    25   15   16 1
    26   15   17 1
    27   15   27 1
    28   17   18 1
    29   17   37 1
    30   17   38 1
    31   18   26 1
    32   18   19 2
    33   19   24 ar
    34   19   20 ar
    35   20   21 ar
    36   20   39 1
    37   21   22 ar
    38   21   40 1
    39   22   23 ar
    40   22   41 1
    41   23   24 ar
    42   23   42 1
    43   24   25 2
    44   25   26 1
    45   25   47 1
    46   26   43 1
    47   26   44 1
    48   27   45 1
    49   27   46 1
    50   27   48 1
@<TRIPOS>MOLECULE
ZINC09975244
   57    60     0     0     0
SMALL
USER_CHARGES
2-[6-amino-8-[2-(4-chloro-3-methyl-phenoxy)-1-methyl-ethylidene]aminoamino-purin-9-yl]-5-(hydroxymethyl)tetrahydrofuran-3,4-diol
@<TRIPOS>ATOM
      1 C1          5.4514   -2.4276   -9.6159 C.3       1 <0>        -0.1226
      2 C2          4.9550   -3.1615   -8.3969 C.ar      1 <0>        -0.0335
      3 C3          4.4866   -2.4527   -7.3073 C.ar      1 <0>        -0.1380
      4 C4          4.0352   -3.1286   -6.1834 C.ar      1 <0>         0.1425
      5 C5          4.0446   -4.5158   -6.1600 C.ar      1 <0>        -0.2084
      6 C6          4.5082   -5.2209   -7.2534 C.ar      1 <0>        -0.0649
      7 C7          4.9631   -4.5447   -8.3718 C.ar      1 <0>        -0.0774
      8 Cl1         5.5454   -5.4332   -9.7448 Cl        1 <0>        -0.0690
      9 O1          3.5789   -2.4329   -5.1086 O.3       1 <0>        -0.2874
     10 C8          3.1238   -3.1946   -3.9884 C.3       1 <0>         0.1261
     11 C9          2.6591   -2.2603   -2.9011 C.2       1 <0>         0.0621
     12 N1          2.7152   -0.9937   -3.0783 N.2       1 <0>        -0.1612
     13 N2          2.1590   -0.1280   -2.1275 N.pl3     1 <0>        -0.5407
     14 C10         2.1361    1.2326   -2.3623 C.2       1 <0>         0.5801
     15 N3          2.4894    1.8101   -3.4839 N.2       1 <0>        -0.4670
     16 C11         2.3473    3.1534   -3.3630 C.ar      1 <0>        -0.0335
     17 C12         2.5712    4.2481   -4.2143 C.ar      1 <0>         0.4294
     18 N4          2.3169    5.4694   -3.7562 N.ar      1 <0>        -0.5681
     19 C13         1.8639    5.6591   -2.5303 C.ar      1 <0>         0.3271
     20 N5          1.6397    4.6635   -1.6984 N.ar      1 <0>        -0.5117
     21 C14         1.8651    3.4076   -2.0687 C.ar      1 <0>         0.2887
     22 N6          1.7373    2.1808   -1.4599 N.pl3     1 <0>        -0.4933
     23 C15         1.2669    1.9350   -0.0944 C.3       1 <0>         0.3006
     24 H1          0.5043    1.1562   -0.0893 H         1 <0>         0.1377
     25 C16         2.4482    1.5368    0.8179 C.3       1 <0>         0.0701
     26 H2          2.1221    0.8251    1.5763 H         1 <0>         0.1056
     27 C17         2.8807    2.8671    1.4741 C.3       1 <0>         0.0435
     28 H3          3.9098    3.1077    1.2074 H         1 <0>         0.0854
     29 C18         1.9095    3.9116    0.8806 C.3       1 <0>         0.0303
     30 H4          2.3581    4.3976    0.0142 H         1 <0>         0.1289
     31 O2          0.7470    3.1515    0.4849 O.3       1 <0>        -0.3118
     32 C19         1.5321    4.9498    1.9392 C.3       1 <0>         0.0867
     33 O3          0.7286    5.9692    1.3414 O.3       1 <0>        -0.5505
     34 O4          2.7365    2.7952    2.8940 O.3       1 <0>        -0.5521
     35 O5          3.5171    0.9900    0.0430 O.3       1 <0>        -0.5433
     36 N7          3.0458    4.0589   -5.5021 N.pl3     1 <0>        -0.7431
     37 C20         2.1282   -2.8170   -1.6053 C.3       1 <0>        -0.1492
     38 H5          4.6221   -2.2634  -10.3039 H         1 <0>         0.0799
     39 H6          5.8704   -1.4670   -9.3161 H         1 <0>         0.0748
     40 H7          6.2208   -3.0215  -10.1093 H         1 <0>         0.0763
     41 H8          4.4759   -1.3729   -7.3292 H         1 <0>         0.1430
     42 H9          3.6893   -5.0439   -5.2875 H         1 <0>         0.1365
     43 H10         4.5160   -6.3008   -7.2354 H         1 <0>         0.1358
     44 H11         3.9401   -3.8116   -3.6128 H         1 <0>         0.0879
     45 H12         2.2966   -3.8343   -4.2959 H         1 <0>         0.0913
     46 H13         1.7901   -0.4844   -1.3042 H         1 <0>         0.3945
     47 H14         1.6699    6.6683   -2.1980 H         1 <0>         0.2028
     48 H15         0.9701    4.4663    2.7383 H         1 <0>         0.0600
     49 H16         2.4379    5.3955    2.3503 H         1 <0>         0.0559
     50 H17         0.4520    6.6628    1.9557 H         1 <0>         0.3793
     51 H18         2.9941    3.6041    3.3570 H         1 <0>         0.3857
     52 H19         4.3078    0.7781    0.5578 H         1 <0>         0.3923
     53 H20         3.9357    3.6041   -5.4659 H         1 <0>         0.3669
     54 H21         3.1964    4.8228   -6.0806 H         1 <0>         0.3705
     55 H22         1.0600   -3.0105   -1.7034 H         1 <0>         0.0870
     56 H23         2.6457   -3.7471   -1.3703 H         1 <0>         0.0905
     57 H24         2.2949   -2.0963   -0.8048 H         1 <0>         0.0709
@<TRIPOS>BOND
     1    1    2 1
     2    1   38 1
     3    1   39 1
     4    1   40 1
     5    2    7 ar
     6    2    3 ar
     7    3    4 ar
     8    3   41 1
     9    4    5 ar
    10    4    9 1
    11    5    6 ar
    12    5   42 1
    13    6    7 ar
    14    6   43 1
    15    7    8 1
    16    9   10 1
    17   10   11 1
    18   10   44 1
    19   10   45 1
    20   11   12 2
    21   11   37 1
    22   12   13 1
    23   13   14 1
    24   13   46 1
    25   14   22 1
    26   14   15 2
    27   15   16 1
    28   16   21 ar
    29   16   17 ar
    30   17   18 ar
    31   17   36 1
    32   18   19 ar
    33   19   20 ar
    34   19   47 1
    35   20   21 ar
    36   21   22 1
    37   22   23 1
    38   23   24 1
    39   23   31 1
    40   23   25 1
    41   25   26 1
    42   25   27 1
    43   25   35 1
    44   27   28 1
    45   27   29 1
    46   27   34 1
    47   29   30 1
    48   29   31 1
    49   29   32 1
    50   32   33 1
    51   32   48 1
    52   32   49 1
    53   33   50 1
    54   34   51 1
    55   35   52 1
    56   36   53 1
    57   36   54 1
    58   37   55 1
    59   37   56 1
    60   37   57 1
@<TRIPOS>MOLECULE
ZINC23409286
   54    56     0     0     0
SMALL
USER_CHARGES
(1R,2R)-2-[[4-amino-6-(p-tolylamino)-1,3,5-triazin-2-yl]methylamino]-1-(4-nitrophenyl)propane-1,3-diol
@<TRIPOS>ATOM
      1 C1          1.2206   -2.1876    0.0244 C.3       1 <0>        -0.1154
      2 C2          1.2049   -0.6807    0.0206 C.ar      1 <0>        -0.1038
      3 C3          2.1430    0.0209    0.7554 C.ar      1 <0>        -0.1017
      4 C4          2.1317    1.4019    0.7537 C.ar      1 <0>        -0.1107
      5 C5          1.1767    2.0861    0.0128 C.ar      1 <0>         0.1610
      6 C6          0.2361    1.3784   -0.7245 C.ar      1 <0>        -0.1429
      7 C7          0.2527   -0.0026   -0.7181 C.ar      1 <0>        -0.1002
      8 N1          1.1621    3.4843    0.0092 N.pl3     1 <0>        -0.6395
      9 C8          2.3471    4.1876    0.1059 C.ar      1 <0>         0.6280
     10 N2          2.3280    5.5149    0.2077 N.ar      1 <0>        -0.6153
     11 C9          3.4608    6.1880    0.3058 C.ar      1 <0>         0.4384
     12 N3          4.6172    5.5481    0.2924 N.ar      1 <0>        -0.6395
     13 C10         4.6445    4.2217    0.1855 C.ar      1 <0>         0.6309
     14 N4          3.5074    3.5409    0.0921 N.ar      1 <0>        -0.6442
     15 N5          5.8524    3.5544    0.1720 N.pl3     1 <0>        -0.8293
     16 C11         3.4344    7.6899    0.4276 C.3       1 <0>         0.1145
     17 N6          3.4721    8.2905   -0.9125 N.3       1 <0>        -0.6433
     18 C12         3.4477    9.7571   -0.8329 C.3       1 <0>         0.0899
     19 H1          4.0152   10.0452    0.0643 H         1 <0>         0.0737
     20 C13         1.9989   10.2382   -0.7298 C.3       1 <0>         0.1050
     21 O1          1.3023    9.9133   -1.9344 O.3       1 <0>        -0.5539
     22 C14         4.0927   10.3469   -2.0887 C.3       1 <0>         0.1584
     23 H2          4.1315   11.4455   -2.0484 H         1 <0>         0.0752
     24 C15         5.4777    9.7772   -2.2568 C.ar      1 <0>        -0.0835
     25 C16         5.6529    8.5619   -2.8919 C.ar      1 <0>        -0.1019
     26 C17         6.9238    8.0417   -3.0503 C.ar      1 <0>        -0.0494
     27 C18         8.0186    8.7317   -2.5645 C.ar      1 <0>        -0.0400
     28 C19         7.8430    9.9445   -1.9248 C.ar      1 <0>        -0.0530
     29 C20         6.5726   10.4673   -1.7709 C.ar      1 <0>        -0.1097
     30 N7          9.3789    8.1718   -2.7288 N.pl3     1 <0>         0.0264
     31 O2         10.3435    8.7796   -2.3003 O.2       1 <0>        -0.1573
     32 O3          9.5336    7.1032   -3.2924 O.3       1 <0>        -0.1563
     33 O4          3.3001   10.0170   -3.2311 O.3       1 <0>        -0.5397
     34 H3          2.0422   -2.5441    0.6631 H         1 <0>         0.0642
     35 H4          1.3678   -2.5553   -1.0018 H         1 <0>         0.0685
     36 H5          0.2632   -2.5633    0.4147 H         1 <0>         0.0685
     37 H6          2.8851   -0.5118    1.3316 H         1 <0>         0.1224
     38 H7          2.8619    1.9492    1.3313 H         1 <0>         0.1319
     39 H8         -0.5074    1.9074   -1.3023 H         1 <0>         0.1250
     40 H9         -0.4786   -0.5535   -1.2910 H         1 <0>         0.1250
     41 H10         0.2070    4.0242   -0.0706 H         1 <0>         0.4527
     42 H11         5.8742    2.4582    0.0836 H         1 <0>         0.4402
     43 H12         6.7934    4.1187    0.2496 H         1 <0>         0.4405
     44 H13         2.5131    7.9998    0.9426 H         1 <0>         0.1028
     45 H14         4.3081    8.0264    1.0050 H         1 <0>         0.0599
     46 H15         4.3934    7.9805   -1.4274 H         1 <0>         0.3417
     47 H16         1.5084    9.7445    0.1220 H         1 <0>         0.0410
     48 H17         1.9841   11.3279   -0.5802 H         1 <0>         0.0386
     49 H18         0.2416   10.1825   -2.0461 H         1 <0>         0.3918
     50 H19         4.7971    8.0207   -3.2676 H         1 <0>         0.1594
     51 H20         7.0609    7.0940   -3.5498 H         1 <0>         0.1543
     52 H21         8.6983   10.4835   -1.5448 H         1 <0>         0.1556
     53 H22         6.4354   11.4146   -1.2708 H         1 <0>         0.1485
     54 H23         3.6078   10.3573   -4.2309 H         1 <0>         0.3967
@<TRIPOS>BOND
     1    1    2 1
     2    1   34 1
     3    1   35 1
     4    1   36 1
     5    2    7 ar
     6    2    3 ar
     7    3    4 ar
     8    3   37 1
     9    4    5 ar
    10    4   38 1
    11    5    6 ar
    12    5    8 1
    13    6    7 ar
    14    6   39 1
    15    7   40 1
    16    8    9 1
    17    8   41 1
    18    9   14 ar
    19    9   10 ar
    20   10   11 ar
    21   11   12 ar
    22   11   16 1
    23   12   13 ar
    24   13   14 ar
    25   13   15 1
    26   15   42 1
    27   15   43 1
    28   16   17 1
    29   16   44 1
    30   16   45 1
    31   17   18 1
    32   17   46 1
    33   18   19 1
    34   18   20 1
    35   18   22 1
    36   20   21 1
    37   20   47 1
    38   20   48 1
    39   21   49 1
    40   22   23 1
    41   22   24 1
    42   22   33 1
    43   24   29 ar
    44   24   25 ar
    45   25   26 ar
    46   25   50 1
    47   26   27 ar
    48   26   51 1
    49   27   28 ar
    50   27   30 1
    51   28   29 ar
    52   28   52 1
    53   29   53 1
    54   30   31 2
    55   30   32 1
    56   33   54 1
@<TRIPOS>MOLECULE
ZINC36372330
   53    55     0     0     0
SMALL
USER_CHARGES

@<TRIPOS>ATOM
      1 C1         -0.0168    1.3850    0.0097 C.ar      1 <0>        -0.0805
      2 C2          1.1505    2.0900    0.0023 C.ar      1 <0>        -0.0906
      3 C3          2.3880    1.3974   -0.0133 C.ar      1 <0>         0.1072
      4 C4          2.3902   -0.0209   -0.0209 C.ar      1 <0>        -0.1810
      5 C5          1.2061   -0.6970   -0.0132 C.ar      1 <0>        -0.0703
      6 C6          0.0021   -0.0041    0.0020 C.ar      1 <0>        -0.0844
      7 C7         -1.2973   -0.7673    0.0109 C.3       1 <0>        -0.1141
      8 C8         -1.7446   -1.0141   -1.4069 C.2       1 <0>         0.3963
      9 O1         -1.0737   -0.6097   -2.3341 O.2       1 <0>        -0.4245
     10 C9         -2.9861   -1.7404   -1.6655 C.ar      1 <0>        -0.2394
     11 C10        -3.7706   -2.2064   -0.5935 C.ar      1 <0>         0.2053
     12 C11        -4.9429   -2.8921   -0.8483 C.ar      1 <0>        -0.2188
     13 C12        -5.3481   -3.1222   -2.1575 C.ar      1 <0>         0.1987
     14 C13        -4.5806   -2.6667   -3.2221 C.ar      1 <0>        -0.2402
     15 C14        -3.4080   -1.9733   -2.9878 C.ar      1 <0>         0.2138
     16 O2         -2.6638   -1.5240   -4.0286 O.3       1 <0>        -0.2809
     17 C15        -3.1543   -1.7974   -5.3427 C.3       1 <0>         0.2051
     18 H1         -4.1717   -1.4179   -5.4371 H         1 <0>         0.1196
     19 C16        -2.2559   -1.1122   -6.3757 C.3       1 <0>         0.0660
     20 H2         -2.6524   -1.2866   -7.3760 H         1 <0>         0.0964
     21 C17        -0.8421   -1.6936   -6.2770 C.3       1 <0>         0.0815
     22 H3         -0.4263   -1.4760   -5.2932 H         1 <0>         0.0899
     23 C18        -0.9103   -3.2102   -6.4806 C.3       1 <0>         0.0954
     24 H4         -1.2796   -3.4270   -7.4829 H         1 <0>         0.0757
     25 C19        -1.8606   -3.8143   -5.4435 C.3       1 <0>         0.0996
     26 H5         -1.4696   -3.6322   -4.4425 H         1 <0>         0.0858
     27 O3         -3.1489   -3.2083   -5.5694 O.3       1 <0>        -0.3585
     28 C20        -1.9805   -5.3215   -5.6780 C.3       1 <0>         0.0904
     29 O4         -2.7737   -5.9033   -4.6415 O.3       1 <0>        -0.5634
     30 O5          0.3936   -3.7726   -6.3201 O.3       1 <0>        -0.5495
     31 O6         -0.0141   -1.1109   -7.2854 O.3       1 <0>        -0.5603
     32 O7         -2.2151    0.2924   -6.1164 O.3       1 <0>        -0.5418
     33 O8         -6.5007   -3.7964   -2.3976 O.3       1 <0>        -0.4903
     34 O9         -3.3770   -1.9835    0.6849 O.3       1 <0>        -0.4842
     35 N1          3.5305    2.0685   -0.0210 N.2       1 <0>        -0.3413
     36 N2          4.5080    1.5138   -0.0333 N.1       1 <0>         0.2972
     37 N3          5.4647    0.9709   -0.0454 N.1       1 <0>        -0.1277
     38 H6         -0.9608    1.9093    0.0260 H         1 <0>         0.1311
     39 H7          1.1326    3.1698    0.0079 H         1 <0>         0.1395
     40 H8          3.3246   -0.5623   -0.0331 H         1 <0>         0.1177
     41 H9          1.2042   -1.7770   -0.0190 H         1 <0>         0.1262
     42 H10        -1.1548   -1.7215    0.5182 H         1 <0>         0.1171
     43 H11        -2.0562   -0.1867    0.5354 H         1 <0>         0.1033
     44 H12        -5.5460   -3.2507   -0.0273 H         1 <0>         0.1444
     45 H13        -4.9037   -2.8507   -4.2361 H         1 <0>         0.1490
     46 H14        -2.4540   -5.5025   -6.6429 H         1 <0>         0.0557
     47 H15        -0.9873   -5.7704   -5.6708 H         1 <0>         0.0759
     48 H16        -2.8921   -6.8592   -4.7264 H         1 <0>         0.3836
     49 H17         1.0489   -3.4307   -6.9435 H         1 <0>         0.3940
     50 H18         0.0681   -0.1496   -7.2197 H         1 <0>         0.3944
     51 H19        -3.0788    0.7254   -6.1582 H         1 <0>         0.3860
     52 H20        -7.2815   -3.2298   -2.4628 H         1 <0>         0.3995
     53 H21        -3.7094   -1.1566    1.0603 H         1 <0>         0.4003
@<TRIPOS>BOND
     1    1    6 ar
     2    1    2 ar
     3    1   38 1
     4    2    3 ar
     5    2   39 1
     6    3    4 ar
     7    3   35 1
     8    4    5 ar
     9    4   40 1
    10    5    6 ar
    11    5   41 1
    12    6    7 1
    13    7    8 1
    14    7   42 1
    15    7   43 1
    16    8    9 2
    17    8   10 1
    18   10   15 ar
    19   10   11 ar
    20   11   12 ar
    21   11   34 1
    22   12   13 ar
    23   12   44 1
    24   13   14 ar
    25   13   33 1
    26   14   15 ar
    27   14   45 1
    28   15   16 1
    29   16   17 1
    30   17   18 1
    31   17   27 1
    32   17   19 1
    33   19   20 1
    34   19   21 1
    35   19   32 1
    36   21   22 1
    37   21   23 1
    38   21   31 1
    39   23   24 1
    40   23   25 1
    41   23   30 1
    42   25   26 1
    43   25   27 1
    44   25   28 1
    45   28   29 1
    46   28   46 1
    47   28   47 1
    48   29   48 1
    49   30   49 1
    50   31   50 1
    51   32   51 1
    52   33   52 1
    53   34   53 1
    54   35   36 2
    55   36   37 2
@<TRIPOS>MOLECULE
ZINC41301772
   50    53     0     0     0
SMALL
USER_CHARGES

@<TRIPOS>ATOM
      1 C1         -0.0189    1.5406    0.0105 C.3       1 <0>        -0.1166
      2 C2          1.4864    1.8758   -0.0021 C.3       1 <0>        -0.0610
      3 C3          2.1764    0.6704    0.6330 C.2       1 <0>        -0.0888
      4 C4          1.3243   -0.3696    0.6205 C.2       1 <0>        -0.2546
      5 S1          2.2279   -1.6989    1.3730 S.3       1 <0>         0.3459
      6 C5          3.6764   -0.9181    1.6971 C.2       1 <0>         0.0372
      7 C6          3.4772    0.3688    1.2297 C.2       1 <0>        -0.2215
      8 C7          4.5265    1.3867    1.3268 C.2       1 <0>         0.5806
      9 O1          4.5956    2.0975    2.3126 O.2       1 <0>        -0.5318
     10 N1          5.4153    1.5360    0.3247 N.am      1 <0>        -0.8470
     11 N2          4.8096   -1.4404    2.2956 N.pl3     1 <0>        -0.5893
     12 C8          4.8292   -2.7660    2.7062 C.ar      1 <0>         0.5398
     13 C9          5.9618   -3.2991    3.3142 C.ar      1 <0>        -0.3090
     14 C10         5.9356   -4.6335    3.7094 C.ar      1 <0>         0.5596
     15 N3          4.8354   -5.3513    3.4942 N.ar      1 <0>        -0.6207
     16 C11         3.7757   -4.8103    2.9126 C.ar      1 <0>         0.6656
     17 N4          3.7630   -3.5428    2.5286 N.ar      1 <0>        -0.6234
     18 N5          2.6501   -5.5883    2.7057 N.pl3     1 <0>        -0.6685
     19 C12         2.6413   -6.9910    3.1285 C.3       1 <0>         0.1226
     20 C13         1.2884   -7.6183    2.7864 C.3       1 <0>         0.0649
     21 H1          0.4847   -7.0224    3.2188 H         1 <0>         0.0914
     22 C14         1.2255   -9.0597    3.3357 C.3       1 <0>        -0.1465
     23 C15         0.4839   -9.8138    2.1985 C.3       1 <0>        -0.1565
     24 C16         1.0134   -9.0608    0.9522 C.3       1 <0>         0.0488
     25 O2          1.1307   -7.6879    1.3644 O.3       1 <0>        -0.3750
     26 N6          7.0407   -5.2074    4.3184 N.pl3     1 <0>        -0.8165
     27 N7          7.1661   -2.4670    3.5350 N.pl3     1 <0>         0.0369
     28 O3          7.2888   -1.8419    4.5626 O.2       1 <0>        -0.1351
     29 O4          8.0268   -2.4124    2.6878 O.3       1 <0>        -0.1382
     30 C17         0.0021   -0.0041    0.0020 C.3       1 <0>        -0.0295
     31 H2         -0.4953    1.9193    0.9148 H         1 <0>         0.0771
     32 H3         -0.5124    1.9289   -0.8804 H         1 <0>         0.0842
     33 H4          1.8338    2.0133   -1.0260 H         1 <0>         0.0806
     34 H5          1.6780    2.7734    0.5859 H         1 <0>         0.0739
     35 H6          5.3603    0.9696   -0.4608 H         1 <0>         0.4033
     36 H7          6.1100    2.2099    0.3890 H         1 <0>         0.4042
     37 H8          5.5902   -0.8800    2.4282 H         1 <0>         0.4290
     38 H9          1.8669   -5.2049    2.2808 H         1 <0>         0.4247
     39 H10         3.4337   -7.5315    2.6108 H         1 <0>         0.0798
     40 H11         2.8061   -7.0472    4.2045 H         1 <0>         0.0856
     41 H12         2.2275   -9.4639    3.4801 H         1 <0>         0.0835
     42 H13         0.6538   -9.0968    4.2630 H         1 <0>         0.0889
     43 H14         0.7696  -10.8654    2.1730 H         1 <0>         0.0870
     44 H15        -0.5964   -9.7044    2.2940 H         1 <0>         0.0813
     45 H16         1.9872   -9.4529    0.6587 H         1 <0>         0.0625
     46 H17         0.3054   -9.1484    0.1281 H         1 <0>         0.0887
     47 H18         7.8392   -4.6785    4.4718 H         1 <0>         0.4161
     48 H19         7.0154   -6.1379    4.5912 H         1 <0>         0.4221
     49 H20        -0.8193   -0.3986    0.6002 H         1 <0>         0.0791
     50 H21        -0.0563   -0.3793   -1.0197 H         1 <0>         0.0845
@<TRIPOS>BOND
     1    1   30 1
     2    1    2 1
     3    1   31 1
     4    1   32 1
     5    2    3 1
     6    2   33 1
     7    2   34 1
     8    3    7 1
     9    3    4 2
    10    4    5 1
    11    4   30 1
    12    5    6 1
    13    6    7 2
    14    6   11 1
    15    7    8 1
    16    8    9 2
    17    8   10 am
    18   10   35 1
    19   10   36 1
    20   11   12 1
    21   11   37 1
    22   12   17 ar
    23   12   13 ar
    24   13   14 ar
    25   13   27 1
    26   14   15 ar
    27   14   26 1
    28   15   16 ar
    29   16   17 ar
    30   16   18 1
    31   18   19 1
    32   18   38 1
    33   19   20 1
    34   19   39 1
    35   19   40 1
    36   20   21 1
    37   20   25 1
    38   20   22 1
    39   22   23 1
    40   22   41 1
    41   22   42 1
    42   23   24 1
    43   23   43 1
    44   23   44 1
    45   24   25 1
    46   24   45 1
    47   24   46 1
    48   26   47 1
    49   26   48 1
    50   27   28 2
    51   27   29 1
    52   30   49 1
    53   30   50 1
@<TRIPOS>MOLECULE
ZINC12609604
   52    55     0     0     0
SMALL
USER_CHARGES

@<TRIPOS>ATOM
      1 C1         -0.0165    1.3620    0.0095 C.ar      1 <0>        -0.1467
      2 C2          1.1697    2.0834    0.0021 C.ar      1 <0>        -0.0977
      3 C3          2.3856    1.4362   -0.0134 C.ar      1 <0>        -0.1322
      4 C4          2.4281    0.0456   -0.0212 C.ar      1 <0>         0.0933
      5 C5          1.2234   -0.6807   -0.0132 C.ar      1 <0>        -0.0931
      6 C6          0.0021   -0.0041    0.0020 C.ar      1 <0>        -0.0705
      7 C7          1.6036   -2.0953   -0.0245 C.2       1 <0>        -0.1677
      8 C8          2.9451   -2.1410   -0.0380 C.2       1 <0>         0.0559
      9 N1          3.4551   -0.8713   -0.0363 N.pl3     1 <0>        -0.5942
     10 H1          4.3995   -0.6501   -0.0442 H         1 <0>         0.4166
     11 C9          0.6664   -3.2754   -0.0210 C.3       1 <0>        -0.0608
     12 C10         0.2361   -3.5891   -1.4554 C.3       1 <0>         0.1777
     13 H2          1.1200   -3.7379   -2.0756 H         1 <0>         0.1155
     14 C11        -0.6016   -4.8418   -1.4659 C.2       1 <0>         0.5000
     15 O1         -1.8106   -4.7624   -1.5196 O.2       1 <0>        -0.4951
     16 N2         -0.0072   -6.0504   -1.4157 N.am      1 <0>        -0.5235
     17 N3         -0.7859   -7.2150   -1.4256 N.am      1 <0>        -0.5154
     18 C12        -0.1915   -8.4236   -1.3754 C.2       1 <0>         0.5257
     19 O2          1.0175   -8.5029   -1.3217 O.2       1 <0>        -0.5053
     20 C13        -1.0292   -9.6763   -1.3859 C.3       1 <0>         0.0468
     21 H3         -1.6859   -9.6719   -2.2558 H         1 <0>         0.1185
     22 C14        -1.8693   -9.7478   -0.1036 C.3       1 <0>         0.0327
     23 O3         -2.6403  -10.9537   -0.1397 O.3       1 <0>        -0.2966
     24 C15        -1.9822  -12.0898   -0.4984 C.ar      1 <0>         0.0448
     25 C16        -2.5477  -13.3234   -0.2118 C.ar      1 <0>        -0.1100
     26 C17        -1.8932  -14.4858   -0.5727 C.ar      1 <0>        -0.1127
     27 C18        -0.6732  -14.4224   -1.2201 C.ar      1 <0>        -0.1121
     28 C19        -0.1036  -13.1965   -1.5073 C.ar      1 <0>        -0.1080
     29 C20        -0.7547  -12.0261   -1.1468 C.ar      1 <0>         0.0499
     30 O4         -0.1774  -10.8262   -1.4299 O.3       1 <0>        -0.2778
     31 N4         -0.5497   -2.4718   -1.9849 N.am      1 <0>        -0.7265
     32 C21        -1.6937   -2.1036   -1.3748 C.2       1 <0>         0.7160
     33 O5         -2.0736   -2.6989   -0.3850 O.2       1 <0>        -0.5678
     34 N5         -2.4166   -1.0757   -1.8620 N.am      1 <0>        -0.8693
     35 H4         -0.9613    1.8849    0.0259 H         1 <0>         0.1200
     36 H5          1.1388    3.1630    0.0081 H         1 <0>         0.1239
     37 H6          3.3028    2.0064   -0.0198 H         1 <0>         0.1184
     38 H7         -0.9246   -0.5587    0.0082 H         1 <0>         0.1245
     39 H8          3.5346   -3.0459   -0.0490 H         1 <0>         0.1709
     40 H9          1.1742   -4.1414    0.4036 H         1 <0>         0.0828
     41 H10        -0.2127   -3.0396    0.5787 H         1 <0>         0.1065
     42 H11         0.9598   -6.1139   -1.3728 H         1 <0>         0.4316
     43 H12        -1.7529   -7.1515   -1.4685 H         1 <0>         0.4340
     44 H13        -1.2124   -9.7574    0.7662 H         1 <0>         0.0888
     45 H14        -2.5357   -8.8868   -0.0522 H         1 <0>         0.1300
     46 H15        -3.5004  -13.3757    0.2943 H         1 <0>         0.1374
     47 H16        -2.3352  -15.4453   -0.3484 H         1 <0>         0.1351
     48 H17        -0.1644  -15.3325   -1.5015 H         1 <0>         0.1354
     49 H18         0.8495  -13.1498   -2.0132 H         1 <0>         0.1377
     50 H19        -0.2466   -1.9969   -2.7745 H         1 <0>         0.4026
     51 H20        -2.1135   -0.6009   -2.6516 H         1 <0>         0.3950
     52 H21        -3.2399   -0.8108   -1.4229 H         1 <0>         0.4151
@<TRIPOS>BOND
     1    1    6 ar
     2    1    2 ar
     3    1   35 1
     4    2    3 ar
     5    2   36 1
     6    3    4 ar
     7    3   37 1
     8    4    9 1
     9    4    5 ar
    10    5    6 ar
    11    5    7 1
    12    6   38 1
    13    7    8 2
    14    7   11 1
    15    8    9 1
    16    8   39 1
    17    9   10 1
    18   11   12 1
    19   11   40 1
    20   11   41 1
    21   12   13 1
    22   12   14 1
    23   12   31 1
    24   14   15 2
    25   14   16 am
    26   16   17 1
    27   16   42 1
    28   17   18 am
    29   17   43 1
    30   18   19 2
    31   18   20 1
    32   20   21 1
    33   20   30 1
    34   20   22 1
    35   22   23 1
    36   22   44 1
    37   22   45 1
    38   23   24 1
    39   24   29 ar
    40   24   25 ar
    41   25   26 ar
    42   25   46 1
    43   26   27 ar
    44   26   47 1
    45   27   28 ar
    46   27   48 1
    47   28   29 ar
    48   28   49 1
    49   29   30 1
    50   31   32 am
    51   31   50 1
    52   32   33 2
    53   32   34 am
    54   34   51 1
    55   34   52 1
@<TRIPOS>MOLECULE
ZINC05538932
   39    41     0     0     0
SMALL
USER_CHARGES
2-[6-amino-9-[3,4-dihydroxy-5-(hydroxymethyl)tetrahydrofuran-2-yl]-purin-8-yl]acetamide
@<TRIPOS>ATOM
      1 C1         -0.0158    1.3165    0.0093 C.ar      1 <0>         0.3465
      2 N1          0.0021   -0.0041    0.0020 N.ar      1 <0>        -0.5478
      3 C2          1.1480   -0.6767   -0.0126 C.ar      1 <0>         0.4564
      4 C3          2.3510    0.0500   -0.0202 C.ar      1 <0>        -0.1000
      5 C4          2.2784    1.4530   -0.0120 C.ar      1 <0>         0.3115
      6 N2          1.0850    2.0380    0.0026 N.ar      1 <0>        -0.5244
      7 N3          3.5758    1.8990   -0.0220 N.pl3     1 <0>        -0.4569
      8 C5          4.3849    0.8020   -0.0357 C.2       1 <0>         0.3157
      9 N4          3.6644   -0.2817   -0.0346 N.2       1 <0>        -0.4450
     10 C6          5.8914    0.8388   -0.0507 C.3       1 <0>        -0.0694
     11 C7          6.3792    0.8586   -1.4764 C.2       1 <0>         0.5177
     12 O1          5.5820    0.8442   -2.3903 O.2       1 <0>        -0.5224
     13 N5          7.7013    0.8923   -1.7359 N.am      1 <0>        -0.8507
     14 C8          4.0117    3.2976   -0.0191 C.3       1 <0>         0.3135
     15 H1          5.0608    3.3721   -0.3053 H         1 <0>         0.1180
     16 C9          3.7787    3.9390    1.3726 C.3       1 <0>         0.0750
     17 H2          2.8522    3.5766    1.8177 H         1 <0>         0.0982
     18 C10         3.6691    5.4442    1.0197 C.3       1 <0>         0.0503
     19 H3          4.6224    5.9440    1.1912 H         1 <0>         0.0952
     20 C11         3.3152    5.4575   -0.4800 C.3       1 <0>         0.0512
     21 H4          4.1100    5.9457   -1.0440 H         1 <0>         0.0923
     22 O2          3.1867    4.0891   -0.9009 O.3       1 <0>        -0.3283
     23 C12         1.9931    6.1956   -0.6993 C.3       1 <0>         0.0816
     24 O3          1.7268    6.2899   -2.1001 O.3       1 <0>        -0.5637
     25 O4          2.6345    6.0676    1.7833 O.3       1 <0>        -0.5477
     26 O5          4.8885    3.6945    2.2390 O.3       1 <0>        -0.5483
     27 N6          1.1567   -2.0605   -0.0205 N.pl3     1 <0>        -0.7498
     28 H5         -0.9695    1.8234    0.0165 H         1 <0>         0.2085
     29 H6          6.2381    1.7347    0.4644 H         1 <0>         0.1239
     30 H7          6.2814   -0.0447    0.4546 H         1 <0>         0.1399
     31 H8          8.3389    0.9038   -1.0049 H         1 <0>         0.4045
     32 H9          8.0153    0.9050   -2.6536 H         1 <0>         0.4079
     33 H10         1.1862    5.6481   -0.2121 H         1 <0>         0.0705
     34 H11         2.0611    7.1970   -0.2742 H         1 <0>         0.0590
     35 H12         0.9020    6.7472   -2.3138 H         1 <0>         0.3847
     36 H13         2.4875    6.9972    1.5613 H         1 <0>         0.3869
     37 H14         4.7897    4.0763    3.1219 H         1 <0>         0.3962
     38 H15         0.6952   -2.4014    0.7985 H         1 <0>         0.3666
     39 H16         1.9997   -2.5402   -0.0312 H         1 <0>         0.3826
@<TRIPOS>BOND
     1    1    6 ar
     2    1    2 ar
     3    1   28 1
     4    2    3 ar
     5    3    4 ar
     6    3   27 1
     7    4    9 1
     8    4    5 ar
     9    5    6 ar
    10    5    7 1
    11    7    8 1
    12    7   14 1
    13    8    9 2
    14    8   10 1
    15   10   11 1
    16   10   29 1
    17   10   30 1
    18   11   12 2
    19   11   13 am
    20   13   31 1
    21   13   32 1
    22   14   15 1
    23   14   22 1
    24   14   16 1
    25   16   17 1
    26   16   18 1
    27   16   26 1
    28   18   19 1
    29   18   20 1
    30   18   25 1
    31   20   21 1
    32   20   22 1
    33   20   23 1
    34   23   24 1
    35   23   33 1
    36   23   34 1
    37   24   35 1
    38   25   36 1
    39   26   37 1
    40   27   38 1
    41   27   39 1
@<TRIPOS>MOLECULE
ZINC05011588
   40    42     0     0     0
SMALL
USER_CHARGES
(2R,3S,4S,5R)-2-(2-aminoethylsulfanylmethyl)-5-(7-aminotriazolo[4,5-e]pyrimidin-3-yl)tetrahydrofuran-3,4-diol
@<TRIPOS>ATOM
      1 C1          3.2029    3.1433   -0.0113 C.ar      1 <0>         0.4051
      2 N1          2.7702    4.3916   -0.0012 N.ar      1 <0>        -0.5962
      3 C2          1.4724    4.6711    0.0120 C.ar      1 <0>         0.5418
      4 C3          0.5543    3.6010    0.0152 C.ar      1 <0>        -0.1701
      5 C4          1.0672    2.2923    0.0042 C.ar      1 <0>         0.3605
      6 N2          2.3855    2.1128   -0.0084 N.ar      1 <0>        -0.5696
      7 N3         -0.0178    1.4608    0.0101 N.pl3     1 <0>        -0.3807
      8 N4         -1.1542    2.2837    0.0192 N.2       1 <0>        -0.0158
      9 N5         -0.7870    3.5178    0.0271 N.2       1 <0>        -0.1759
     10 C5          0.0021   -0.0041    0.0020 C.3       1 <0>         0.3309
     11 H1          0.9803   -0.3678   -0.3124 H         1 <0>         0.1616
     12 C6         -0.3520   -0.5544    1.4013 C.3       1 <0>         0.0399
     13 H2          0.1926   -1.4780    1.5976 H         1 <0>         0.1065
     14 C7         -1.8715   -0.8242    1.3252 C.3       1 <0>         0.0513
     15 H3         -2.4045   -0.2160    2.0560 H         1 <0>         0.0953
     16 C8         -2.2556   -0.4049   -0.1111 C.3       1 <0>         0.0899
     17 H4         -2.6185    0.6229   -0.1222 H         1 <0>         0.1200
     18 O1         -1.0307   -0.5161   -0.8681 O.3       1 <0>        -0.3315
     19 C9         -3.3182   -1.3500   -0.6756 C.3       1 <0>        -0.0703
     20 S1         -3.7508   -0.8360   -2.3607 S.3       1 <0>        -0.1880
     21 C10        -5.0036   -2.0411   -2.8791 C.3       1 <0>        -0.1521
     22 C11        -5.4619   -1.7198   -4.3030 C.3       1 <0>         0.0166
     23 O2         -2.1447   -2.2115    1.5318 O.3       1 <0>        -0.5523
     24 O3         -0.0660    0.4178    2.4088 O.3       1 <0>        -0.5408
     25 N6          1.0315    5.9806    0.0220 N.pl3     1 <0>        -0.8015
     26 H5          4.2675    2.9622   -0.0215 H         1 <0>         0.2152
     27 H6         -2.9265   -2.3669   -0.6952 H         1 <0>         0.1081
     28 H7         -4.2071   -1.3151   -0.0457 H         1 <0>         0.1057
     29 H8         -4.5765   -3.0436   -2.8524 H         1 <0>         0.1046
     30 H9         -5.8570   -1.9917   -2.2028 H         1 <0>         0.1041
     31 H10        -5.8891   -0.7174   -4.3297 H         1 <0>         0.1446
     32 H11        -4.6085   -1.7693   -4.9792 H         1 <0>         0.1419
     33 H12        -7.2497   -2.7150   -4.0748 H         1 <0>         0.4378
     34 H13        -6.7955   -2.5049   -5.6608 H         1 <0>         0.4443
     35 H14        -1.8674   -2.5424    2.3971 H         1 <0>         0.3901
     36 H15        -0.2696    0.1245    3.3075 H         1 <0>         0.3912
     37 H16         0.0807    6.1721    0.0313 H         1 <0>         0.4224
     38 H17         1.6729    6.7083    0.0197 H         1 <0>         0.4186
     39 N7         -6.4628   -2.7170   -4.7217 N.4       1 <0>        -0.6435
     40 H18        -6.0314   -3.6488   -4.7216 H         1 <0>         0.4404
@<TRIPOS>BOND
     1    1    6 ar
     2    1    2 ar
     3    1   26 1
     4    2    3 ar
     5    3    4 ar
     6    3   25 1
     7    4    9 1
     8    4    5 ar
     9    5    6 ar
    10    5    7 1
    11    7    8 1
    12    7   10 1
    13    8    9 2
    14   10   11 1
    15   10   18 1
    16   10   12 1
    17   12   13 1
    18   12   14 1
    19   12   24 1
    20   14   15 1
    21   14   16 1
    22   14   23 1
    23   16   17 1
    24   16   18 1
    25   16   19 1
    26   19   20 1
    27   19   27 1
    28   19   28 1
    29   20   21 1
    30   21   22 1
    31   21   29 1
    32   21   30 1
    33   22   31 1
    34   22   32 1
    35   22   39 1
    36   23   35 1
    37   24   36 1
    38   25   37 1
    39   25   38 1
    40   33   39 1
    41   34   39 1
    42   39   40 1
@<TRIPOS>MOLECULE
ZINC22046229
   51    51     0     0     0
SMALL
USER_CHARGES
N-[(2S,3S,4R,5R,6R)-3-acetamido-4,5-dihydroxy-6-(hydroxymethyl)tetrahydropyran-2-yl]-6-amino-hexanamide
@<TRIPOS>ATOM
      1 C1          4.4421    5.5597    3.9234 C.3       1 <0>        -0.1683
      2 C2          3.5783    5.9815    2.7628 C.2       1 <0>         0.5226
      3 O1          3.8228    7.0092    2.1670 O.2       1 <0>        -0.5439
      4 N1          2.5341    5.2167    2.3869 N.am      1 <0>        -0.7096
      5 C3          1.6945    5.6268    1.2587 C.3       1 <0>         0.1323
      6 H1          1.6927    6.7267    1.2440 H         1 <0>         0.1067
      7 C4          2.2754    5.0649   -0.0425 C.3       1 <0>         0.1120
      8 H2          1.7384    5.4469   -0.9232 H         1 <0>         0.0661
      9 C5          2.2425    3.5345    0.0152 C.3       1 <0>         0.0650
     10 H3          2.6606    3.0874   -0.8988 H         1 <0>         0.0661
     11 C6          0.8034    3.0716    0.2568 C.3       1 <0>         0.0571
     12 H4          0.1312    3.4229   -0.5399 H         1 <0>         0.0709
     13 O2          0.3134    3.6545    1.4661 O.3       1 <0>        -0.3600
     14 C7          0.2765    5.0830    1.4520 C.3       1 <0>         0.3054
     15 H5         -0.1718    5.4021    2.4045 H         1 <0>         0.1443
     16 N2         -0.5759    5.5389    0.3512 N.am      1 <0>        -0.7527
     17 C8         -1.8439    5.9245    0.5960 C.2       1 <0>         0.5241
     18 O3         -2.2793    5.8941    1.7276 O.2       1 <0>        -0.5321
     19 C9         -2.7208    6.3935   -0.5363 C.3       1 <0>        -0.1438
     20 C10        -4.1000    6.7696    0.0088 C.3       1 <0>        -0.1074
     21 C11        -4.9903    7.2457   -1.1409 C.3       1 <0>        -0.1199
     22 C12        -6.3695    7.6219   -0.5958 C.3       1 <0>        -0.1525
     23 C13        -7.2598    8.0980   -1.7454 C.3       1 <0>        -0.0034
     24 N3         -8.5840    8.4591   -1.2220 N.4       1 <0>        -0.6881
     25 C14         0.7713    1.5465    0.3760 C.3       1 <0>         0.0932
     26 O4         -0.5836    1.1058    0.4854 O.3       1 <0>        -0.5940
     27 O5          3.0763    3.0791    1.0827 O.3       1 <0>        -0.5645
     28 O6          3.6246    5.5103   -0.1953 O.3       1 <0>        -0.5605
     29 H6          4.0677    4.6099    4.3330 H         1 <0>         0.0738
     30 H7          4.4104    6.3337    4.7044 H         1 <0>         0.0906
     31 H8          5.4787    5.4276    3.5799 H         1 <0>         0.0931
     32 H9          2.3123    4.2846    2.9273 H         1 <0>         0.4261
     33 H10        -0.1810    5.5665   -0.6751 H         1 <0>         0.4178
     34 H11        -2.2634    7.2722   -1.0145 H         1 <0>         0.0984
     35 H12        -2.8266    5.5867   -1.2765 H         1 <0>         0.0975
     36 H13        -4.5573    5.8909    0.4871 H         1 <0>         0.0755
     37 H14        -3.9942    7.5764    0.7490 H         1 <0>         0.0755
     38 H15        -4.5329    8.1243   -1.6192 H         1 <0>         0.0750
     39 H16        -5.0961    6.4389   -1.8811 H         1 <0>         0.0748
     40 H17        -6.8269    6.7432   -0.1175 H         1 <0>         0.0874
     41 H18        -6.2637    8.4287    0.1444 H         1 <0>         0.0875
     42 H19        -6.8025    8.9767   -2.2236 H         1 <0>         0.1277
     43 H20        -7.3656    7.2912   -2.4856 H         1 <0>         0.1276
     44 H21        -9.2241    8.8014   -2.0485 H         1 <0>         0.4592
     45 H22        -8.4782    9.2659   -0.4818 H         1 <0>         0.4564
     46 H23         1.2314    1.0991   -0.5174 H         1 <0>         0.0576
     47 H24         1.3311    1.2368    1.2708 H         1 <0>         0.0566
     48 H25        -0.8070    0.0329    0.5804 H         1 <0>         0.4152
     49 H26         3.1786    2.0017    1.2795 H         1 <0>         0.4009
     50 H27         4.2079    5.2055   -1.0767 H         1 <0>         0.4042
     51 H28        -9.0413    7.5804   -0.7437 H         1 <0>         0.4563
@<TRIPOS>BOND
     1    1    2 1
     2    1   29 1
     3    1   30 1
     4    1   31 1
     5    2    3 2
     6    2    4 am
     7    4    5 1
     8    4   32 1
     9    5    6 1
    10    5   14 1
    11    5    7 1
    12    7    8 1
    13    7    9 1
    14    7   28 1
    15    9   10 1
    16    9   11 1
    17    9   27 1
    18   11   12 1
    19   11   13 1
    20   11   25 1
    21   13   14 1
    22   14   15 1
    23   14   16 1
    24   16   17 am
    25   16   33 1
    26   17   18 2
    27   17   19 1
    28   19   20 1
    29   19   34 1
    30   19   35 1
    31   20   21 1
    32   20   36 1
    33   20   37 1
    34   21   22 1
    35   21   38 1
    36   21   39 1
    37   22   23 1
    38   22   40 1
    39   22   41 1
    40   23   24 1
    41   23   42 1
    42   23   43 1
    43   24   44 1
    44   24   45 1
    45   24   51 1
    46   25   26 1
    47   25   46 1
    48   25   47 1
    49   26   48 1
    50   27   49 1
    51   28   50 1
@<TRIPOS>MOLECULE
ZINC19323012
   52    54     0     0     0
SMALL
USER_CHARGES

@<TRIPOS>ATOM
      1 C1         -0.0187    1.5258    0.0104 C.3       1 <0>        -0.1395
      2 C2          0.0021   -0.0041    0.0020 C.3       1 <0>        -0.0968
      3 C3          0.7215   -0.5124   -1.2517 C.3       1 <0>         0.0037
      4 N1          0.7124   -1.9788   -1.2636 N.4       1 <0>        -0.4001
      5 C4          1.4486   -2.4999   -0.1076 C.3       1 <0>         0.0000
      6 C5          0.7543   -2.0596    1.1857 C.3       1 <0>        -0.1409
      7 C6          0.7417   -0.5266    1.2406 C.3       1 <0>         0.1142
      8 O1          2.0880   -0.0474    1.2350 O.3       1 <0>        -0.5568
      9 C7         -0.6939   -2.5630    1.1604 C.3       1 <0>         0.0409
     10 N2         -1.3588   -2.0319   -0.0394 N.3       1 <0>        -0.4698
     11 C8         -1.4313   -0.5491    0.0206 C.3       1 <0>         0.0460
     12 C9         -0.6656   -2.4780   -1.2558 C.3       1 <0>         0.1610
     13 C10        -0.6512   -4.0073   -1.2993 C.3       1 <0>         0.0621
     14 H1         -0.1199   -4.3906   -0.4282 H         1 <0>         0.1207
     15 C11        -2.0886   -4.5313   -1.2912 C.3       1 <0>         0.0691
     16 H2         -2.6200   -4.1480   -2.1624 H         1 <0>         0.1100
     17 C12        -2.0743   -6.0606   -1.3348 C.3       1 <0>         0.0525
     18 H3         -1.5429   -6.4439   -0.4637 H         1 <0>         0.1020
     19 C13        -3.5117   -6.5846   -1.3267 C.3       1 <0>         0.0841
     20 H4         -4.0430   -6.2013   -2.1978 H         1 <0>         0.1064
     21 C14        -3.4973   -8.1139   -1.3703 C.3       1 <0>         0.0443
     22 O2         -4.8366   -8.5999   -1.4802 O.3       1 <0>        -0.5645
     23 O3         -4.1711   -6.1481   -0.1365 O.3       1 <0>        -0.5264
     24 O4         -1.4148   -6.4970   -2.5250 O.3       1 <0>        -0.5324
     25 O5         -2.7481   -4.0948   -0.1010 O.3       1 <0>        -0.4976
     26 O6          0.0082   -4.4437   -2.4896 O.3       1 <0>        -0.5290
     27 C15         1.4990   -2.6216    2.3982 C.3       1 <0>        -0.1480
     28 H5          1.0039    1.9031    0.0027 H         1 <0>         0.0793
     29 H6         -0.5459    1.8868   -0.8726 H         1 <0>         0.0710
     30 H7         -0.5289    1.8773    0.9072 H         1 <0>         0.0779
     31 H8          0.2111   -0.1391   -2.1395 H         1 <0>         0.1298
     32 H9          1.7515   -0.1559   -1.2488 H         1 <0>         0.1386
     33 H10         1.4731   -3.5887   -0.1537 H         1 <0>         0.1303
     34 H11         2.4677   -2.1135   -0.1221 H         1 <0>         0.1352
     35 H12         0.2338   -0.1854    2.1426 H         1 <0>         0.0889
     36 H13         2.6131   -0.3410    1.9920 H         1 <0>         0.3927
     37 H14        -0.7015   -3.6525    1.1304 H         1 <0>         0.0954
     38 H15        -1.2169   -2.2162    2.0517 H         1 <0>         0.1168
     39 H16        -1.9328   -0.2275    0.9334 H         1 <0>         0.1167
     40 H17        -1.9749   -0.1776   -0.8480 H         1 <0>         0.1071
     41 H18        -1.1922   -2.0986   -2.1315 H         1 <0>         0.1498
     42 H19        -2.9180   -8.4474   -2.2312 H         1 <0>         0.0625
     43 H20        -3.0448   -8.4991   -0.4565 H         1 <0>         0.0471
     44 H21        -4.9037   -9.5640   -1.5131 H         1 <0>         0.3859
     45 H22        -3.7518   -6.4529    0.6798 H         1 <0>         0.3690
     46 H23        -1.8342   -6.1923   -3.3413 H         1 <0>         0.3781
     47 H24        -2.3287   -4.3996    0.7153 H         1 <0>         0.3657
     48 H25        -0.4112   -4.1390   -3.3059 H         1 <0>         0.3868
     49 H26         2.5244   -2.2518    2.3983 H         1 <0>         0.0734
     50 H27         0.9978   -2.3030    3.3122 H         1 <0>         0.0828
     51 H28         1.5055   -3.7105    2.3480 H         1 <0>         0.0764
     52 H29         1.1714   -2.3011   -2.1023 H         1 <0>         0.4273
@<TRIPOS>BOND
     1    1    2 1
     2    1   28 1
     3    1   29 1
     4    1   30 1
     5    2    7 1
     6    2   11 1
     7    2    3 1
     8    3    4 1
     9    3   31 1
    10    3   32 1
    11    4   12 1
    12    4    5 1
    13    4   52 1
    14    5    6 1
    15    5   33 1
    16    5   34 1
    17    6    7 1
    18    6    9 1
    19    6   27 1
    20    7    8 1
    21    7   35 1
    22    8   36 1
    23    9   10 1
    24    9   37 1
    25    9   38 1
    26   10   11 1
    27   10   12 1
    28   11   39 1
    29   11   40 1
    30   12   13 1
    31   12   41 1
    32   13   14 1
    33   13   15 1
    34   13   26 1
    35   15   16 1
    36   15   17 1
    37   15   25 1
    38   17   18 1
    39   17   19 1
    40   17   24 1
    41   19   20 1
    42   19   21 1
    43   19   23 1
    44   21   22 1
    45   21   42 1
    46   21   43 1
    47   22   44 1
    48   23   45 1
    49   24   46 1
    50   25   47 1
    51   26   48 1
    52   27   49 1
    53   27   50 1
    54   27   51 1
@<TRIPOS>MOLECULE
ZINC44154818
   51    51     0     0     0
SMALL
USER_CHARGES

@<TRIPOS>ATOM
      1 C1         -0.0184    1.5028    0.0103 C.3       1 <0>        -0.1755
      2 C2          0.0021   -0.0041    0.0020 C.2       1 <0>         0.5204
      3 O1          1.0605   -0.5961   -0.0113 O.2       1 <0>        -0.5468
      4 N1         -1.1558   -0.6938    0.0094 N.am      1 <0>        -0.7154
      5 C3         -1.1360   -2.1586    0.0013 C.3       1 <0>         0.1193
      6 H1         -0.2952   -2.5082   -0.5979 H         1 <0>         0.1192
      7 C4         -2.4444   -2.6850   -0.5963 C.3       1 <0>         0.1117
      8 H2         -3.2882   -2.2944   -0.0276 H         1 <0>         0.0802
      9 C5         -2.4449   -4.2153   -0.5280 C.3       1 <0>         0.0471
     10 H3         -3.3958   -4.5962   -0.9006 H         1 <0>         0.0822
     11 C6         -2.2527   -4.6534    0.9262 C.3       1 <0>         0.0668
     12 H4         -3.0884   -4.2953    1.5273 H         1 <0>         0.0805
     13 O2         -1.0333   -4.1047    1.4304 O.3       1 <0>        -0.3683
     14 C7         -0.9927   -2.6762    1.4349 C.3       1 <0>         0.3078
     15 H5         -1.8113   -2.2921    2.0436 H         1 <0>         0.0886
     16 N2          0.2845   -2.2241    1.9922 N.am      1 <0>        -0.7023
     17 C8          0.3755   -1.9090    3.2995 C.2       1 <0>         0.5198
     18 O3         -0.5999   -1.9996    4.0144 O.2       1 <0>        -0.5393
     19 C9          1.6894   -1.4439    3.8727 C.3       1 <0>        -0.1408
     20 C10         1.5204   -1.1540    5.3655 C.3       1 <0>        -0.1047
     21 C11         2.8543   -0.6819    5.9475 C.3       1 <0>        -0.1194
     22 C12         2.6853   -0.3920    7.4403 C.3       1 <0>        -0.1525
     23 C13         4.0192    0.0801    8.0223 C.3       1 <0>        -0.0098
     24 N3          3.8570    0.3584    9.4555 N.4       1 <0>        -0.6386
     25 C14        -2.1921   -6.1807    0.9952 C.3       1 <0>         0.0811
     26 O4         -2.1298   -6.5937    2.3618 O.3       1 <0>        -0.5612
     27 O5         -1.3781   -4.7293   -1.3279 O.3       1 <0>        -0.5384
     28 O6         -2.5507   -2.2655   -1.9582 O.3       1 <0>        -0.5406
     29 H6          1.0042    1.8801    0.0026 H         1 <0>         0.0949
     30 H7         -0.5455    1.8639   -0.8728 H         1 <0>         0.0925
     31 H8         -0.5286    1.8543    0.9071 H         1 <0>         0.0876
     32 H9         -2.0023   -0.2203    0.0200 H         1 <0>         0.4049
     33 H10         1.0647   -2.1517    1.4204 H         1 <0>         0.4173
     34 H11         2.4408   -2.2216    3.7364 H         1 <0>         0.0978
     35 H12         2.0085   -0.5364    3.3602 H         1 <0>         0.0981
     36 H13         0.7689   -0.3764    5.5018 H         1 <0>         0.0740
     37 H14         1.2012   -2.0615    5.8780 H         1 <0>         0.0750
     38 H15         3.6058   -1.4596    5.8112 H         1 <0>         0.0763
     39 H16         3.1735    0.2256    5.4350 H         1 <0>         0.0761
     40 H17         1.9338    0.3857    7.5766 H         1 <0>         0.0887
     41 H18         2.3661   -1.2995    7.9528 H         1 <0>         0.0891
     42 H19         4.7707   -0.6976    7.8860 H         1 <0>         0.1338
     43 H20         4.3384    0.9876    7.5098 H         1 <0>         0.1338
     44 H21         3.1613    1.0783    9.5817 H         1 <0>         0.4354
     45 H22         3.5615   -0.4816    9.9300 H         1 <0>         0.4356
     46 H23        -3.0832   -6.6010    0.5288 H         1 <0>         0.0678
     47 H24        -1.3055   -6.5333    0.4682 H         1 <0>         0.0601
     48 H25        -2.0892   -7.5524    2.4815 H         1 <0>         0.3855
     49 H26        -1.3186   -5.6945   -1.3309 H         1 <0>         0.3804
     50 H27        -3.3574   -2.5643   -2.4000 H         1 <0>         0.3862
     51 H28         4.7366    0.6698    9.8394 H         1 <0>         0.4382
@<TRIPOS>BOND
     1    1    2 1
     2    1   29 1
     3    1   30 1
     4    1   31 1
     5    2    3 2
     6    2    4 am
     7    4    5 1
     8    4   32 1
     9    5    6 1
    10    5   14 1
    11    5    7 1
    12    7    8 1
    13    7    9 1
    14    7   28 1
    15    9   10 1
    16    9   11 1
    17    9   27 1
    18   11   12 1
    19   11   13 1
    20   11   25 1
    21   13   14 1
    22   14   15 1
    23   14   16 1
    24   16   17 am
    25   16   33 1
    26   17   18 2
    27   17   19 1
    28   19   20 1
    29   19   34 1
    30   19   35 1
    31   20   21 1
    32   20   36 1
    33   20   37 1
    34   21   22 1
    35   21   38 1
    36   21   39 1
    37   22   23 1
    38   22   40 1
    39   22   41 1
    40   23   24 1
    41   23   42 1
    42   23   43 1
    43   24   44 1
    44   24   45 1
    45   24   51 1
    46   25   26 1
    47   25   46 1
    48   25   47 1
    49   26   48 1
    50   27   49 1
    51   28   50 1
@<TRIPOS>MOLECULE
ZINC13998156
   55    57     0     0     0
SMALL
USER_CHARGES
(E)-3-(2-chlorophenyl)-N-[[4-[(2,6-dimethylphenyl)sulfamoyl]phenyl]carbamothioyl]prop-2-enamide
@<TRIPOS>ATOM
      1 C1         -6.3796    3.4443    3.6505 C.3       1 <0>        -0.1189
      2 C2         -6.0897    4.8592    3.2201 C.ar      1 <0>        -0.0710
      3 C3         -5.2150    5.6387    3.9511 C.ar      1 <0>        -0.1253
      4 C4         -4.9528    6.9390    3.5600 C.ar      1 <0>        -0.0999
      5 C5         -5.5610    7.4614    2.4333 C.ar      1 <0>        -0.1213
      6 C6         -6.4327    6.6856    1.6947 C.ar      1 <0>        -0.0540
      7 C7         -6.6983    5.3791    2.0848 C.ar      1 <0>         0.1159
      8 N1         -7.5798    4.5918    1.3403 N.pl3     1 <0>        -1.0574
      9 S1         -7.1068    3.9763   -0.1224 S.o2      1 <0>         2.6843
     10 O1         -6.3458    4.9910   -0.7631 O.2       1 <0>        -0.9383
     11 O2         -8.2640    3.4030   -0.7152 O.2       1 <0>        -0.9490
     12 C8         -5.9980    2.6468    0.2058 C.ar      1 <0>        -0.6688
     13 C9         -6.4745    1.3501    0.2666 C.ar      1 <0>        -0.0126
     14 C10        -5.6079    0.3057    0.5228 C.ar      1 <0>        -0.0920
     15 C11        -4.2566    0.5589    0.7199 C.ar      1 <0>         0.1770
     16 C12        -3.7823    1.8631    0.6643 C.ar      1 <0>        -0.1402
     17 C13        -4.6531    2.9024    0.4016 C.ar      1 <0>        -0.0081
     18 N2         -3.3762   -0.4966    0.9795 N.pl3     1 <0>        -0.6286
     19 C14        -3.4474   -1.6282    0.2509 C.2       1 <0>         0.5071
     20 S2         -4.6791   -1.8141   -0.9235 S.2       1 <0>        -0.4690
     21 N3         -2.5489   -2.6134    0.4468 N.am      1 <0>        -0.6357
     22 C15        -2.6234   -3.7473   -0.2779 C.2       1 <0>         0.5225
     23 O3         -3.4988   -3.8794   -1.1126 O.2       1 <0>        -0.4044
     24 C16        -1.6519   -4.8190   -0.0611 C.2       1 <0>        -0.2173
     25 C17        -1.7265   -5.9542   -0.7867 C.2       1 <0>        -0.0007
     26 C18        -0.7493   -7.0321   -0.5686 C.ar      1 <0>        -0.0753
     27 C19         0.2587   -6.8842    0.3900 C.ar      1 <0>        -0.0868
     28 C20         1.1705   -7.8986    0.5884 C.ar      1 <0>        -0.1179
     29 C21         1.0911   -9.0625   -0.1574 C.ar      1 <0>        -0.0897
     30 C22         0.0982   -9.2177   -1.1079 C.ar      1 <0>        -0.1119
     31 C23        -0.8266   -8.2136   -1.3151 C.ar      1 <0>        -0.0120
     32 Cl1        -2.0769   -8.4128   -2.5029 Cl        1 <0>        -0.0509
     33 C24        -7.0947    7.2556    0.4667 C.3       1 <0>        -0.1265
     34 H1         -5.6148    2.7788    3.2501 H         1 <0>         0.0724
     35 H2         -6.3766    3.3879    4.7391 H         1 <0>         0.0706
     36 H3         -7.3570    3.1430    3.2738 H         1 <0>         0.0686
     37 H4         -4.7383    5.2338    4.8316 H         1 <0>         0.1261
     38 H5         -4.2718    7.5479    4.1360 H         1 <0>         0.1265
     39 H6         -5.3544    8.4774    2.1308 H         1 <0>         0.1290
     40 H7         -8.4690    4.4057    1.6802 H         1 <0>         0.4249
     41 H8         -7.5253    1.1538    0.1133 H         1 <0>         0.1477
     42 H9         -5.9805   -0.7069    0.5695 H         1 <0>         0.1568
     43 H10        -2.7328    2.0638    0.8215 H         1 <0>         0.1355
     44 H11        -4.2841    3.9162    0.3531 H         1 <0>         0.1436
     45 H12        -2.7145   -0.4141    1.6840 H         1 <0>         0.4109
     46 H13        -1.8510   -2.5081    1.1122 H         1 <0>         0.4124
     47 H14        -0.8748   -4.7017    0.6797 H         1 <0>         0.1350
     48 H15        -2.5035   -6.0714   -1.5276 H         1 <0>         0.1466
     49 H16         0.3225   -5.9773    0.9729 H         1 <0>         0.1367
     50 H17         1.9491   -7.7855    1.3282 H         1 <0>         0.1351
     51 H18         1.8087   -9.8535    0.0035 H         1 <0>         0.1375
     52 H19         0.0430  -10.1285   -1.6856 H         1 <0>         0.1404
     53 H20        -7.9711    7.8329    0.7612 H         1 <0>         0.0702
     54 H21        -6.3920    7.9036   -0.0572 H         1 <0>         0.0751
     55 H22        -7.3997    6.4426   -0.1921 H         1 <0>         0.0756
@<TRIPOS>BOND
     1    1    2 1
     2    1   34 1
     3    1   35 1
     4    1   36 1
     5    2    7 ar
     6    2    3 ar
     7    3    4 ar
     8    3   37 1
     9    4    5 ar
    10    4   38 1
    11    5    6 ar
    12    5   39 1
    13    6    7 ar
    14    6   33 1
    15    7    8 1
    16    8    9 1
    17    8   40 1
    18    9   10 2
    19    9   11 2
    20    9   12 1
    21   12   17 ar
    22   12   13 ar
    23   13   14 ar
    24   13   41 1
    25   14   15 ar
    26   14   42 1
    27   15   16 ar
    28   15   18 1
    29   16   17 ar
    30   16   43 1
    31   17   44 1
    32   18   19 1
    33   18   45 1
    34   19   20 2
    35   19   21 1
    36   21   22 am
    37   21   46 1
    38   22   23 2
    39   22   24 1
    40   24   25 2
    41   24   47 1
    42   25   26 1
    43   25   48 1
    44   26   31 ar
    45   26   27 ar
    46   27   28 ar
    47   27   49 1
    48   28   29 ar
    49   28   50 1
    50   29   30 ar
    51   29   51 1
    52   30   31 ar
    53   30   52 1
    54   31   32 1
    55   33   53 1
    56   33   54 1
    57   33   55 1
@<TRIPOS>MOLECULE
ZINC19940186
   65    68     0     0     0
SMALL
USER_CHARGES
(4R)-5-cyano-2-methyl-N-(o-tolyl)-6-[2-(o-tolylamino)-2-oxo-ethyl]sulfanyl-4-phenyl-1,4-dihydropyridine-3-carboxamide
@<TRIPOS>ATOM
      1 C1          2.7731    6.4939   -1.5747 C.3       1 <0>        -0.1156
      2 C2          3.9520    5.8059   -0.9361 C.ar      1 <0>        -0.1092
      3 C3          5.2166    6.3489   -1.0542 C.ar      1 <0>        -0.1034
      4 C4          6.2986    5.7187   -0.4679 C.ar      1 <0>        -0.1268
      5 C5          6.1187    4.5434    0.2385 C.ar      1 <0>        -0.1064
      6 C6          4.8563    3.9980    0.3644 C.ar      1 <0>        -0.1180
      7 C7          3.7681    4.6258   -0.2280 C.ar      1 <0>         0.1416
      8 N1          2.4884    4.0732   -0.1065 N.am      1 <0>        -0.6745
      9 C8          2.3318    2.7347   -0.0823 C.2       1 <0>         0.5357
     10 O1          3.3045    2.0103   -0.0831 O.2       1 <0>        -0.4980
     11 C9          0.9481    2.1383   -0.0545 C.3       1 <0>        -0.1839
     12 S1          1.0699    0.3327   -0.0262 S.3       1 <0>         0.0443
     13 C10        -0.6407   -0.0889    0.0030 C.2       1 <0>         0.1579
     14 C11        -1.0133   -1.3967    0.0238 C.2       1 <0>        -0.1072
     15 C12        -2.4622   -1.7942    0.0444 C.3       1 <0>         0.0817
     16 H1         -2.5998   -2.5856    0.7960 H         1 <0>         0.0888
     17 C13        -3.3321   -0.6283    0.4176 C.2       1 <0>        -0.2707
     18 C14        -2.8767    0.6342    0.3770 C.2       1 <0>         0.2388
     19 N2         -1.5905    0.9081   -0.0010 N.pl3     1 <0>        -0.6502
     20 C15        -3.7966    1.7670    0.7532 C.3       1 <0>        -0.1123
     21 C16        -4.6671   -0.8666    0.8233 C.2       1 <0>         0.5782
     22 O2         -5.3863    0.0671    1.1298 O.2       1 <0>        -0.5365
     23 N3         -5.1423   -2.1270    0.8704 N.am      1 <0>        -0.6817
     24 C17        -6.4293   -2.3712    1.3599 C.ar      1 <0>         0.1546
     25 C18        -7.4469   -1.4538    1.1307 C.ar      1 <0>        -0.1190
     26 C19        -8.7166   -1.6979    1.6156 C.ar      1 <0>        -0.1083
     27 C20        -8.9758   -2.8545    2.3283 C.ar      1 <0>        -0.1353
     28 C21        -7.9652   -3.7696    2.5582 C.ar      1 <0>        -0.1024
     29 C22        -6.6942   -3.5340    2.0714 C.ar      1 <0>        -0.1165
     30 C23        -5.5948   -4.5350    2.3171 C.3       1 <0>        -0.1164
     31 C24        -2.8552   -2.2879   -1.3241 C.ar      1 <0>        -0.0807
     32 C25        -2.7778   -1.4402   -2.4133 C.ar      1 <0>        -0.0957
     33 C26        -3.1342   -1.8944   -3.6693 C.ar      1 <0>        -0.1153
     34 C27        -3.5767   -3.1935   -3.8347 C.ar      1 <0>        -0.1177
     35 C28        -3.6591   -4.0396   -2.7446 C.ar      1 <0>        -0.1109
     36 C29        -3.2986   -3.5867   -1.4893 C.ar      1 <0>        -0.1232
     37 C30        -0.0057   -2.4142    0.0305 C.1       1 <0>         0.2533
     38 N4          0.7937   -3.2214    0.0358 N.1       1 <0>        -0.4031
     39 H2          3.1140    7.4057   -2.0869 H         1 <0>         0.0723
     40 H3          2.0403    6.7612   -0.7991 H         1 <0>         0.0674
     41 H4          2.3045    5.8169   -2.3042 H         1 <0>         0.0687
     42 H5          5.3603    7.2668   -1.6049 H         1 <0>         0.1270
     43 H6          7.2863    6.1454   -0.5614 H         1 <0>         0.1249
     44 H7          6.9658    4.0540    0.6960 H         1 <0>         0.1265
     45 H8          4.7158    3.0826    0.9198 H         1 <0>         0.1384
     46 H9          1.6101    4.7311   -0.0307 H         1 <0>         0.4349
     47 H10         0.4178    2.4842    0.8450 H         1 <0>         0.1315
     48 H11         0.3944    2.4545   -0.9509 H         1 <0>         0.1274
     49 H12        -1.3161    1.9279   -0.3086 H         1 <0>         0.4401
     50 H13        -3.2584    2.7220    0.6623 H         1 <0>         0.0564
     51 H14        -4.1358    1.6346    1.7912 H         1 <0>         0.1062
     52 H15        -4.6671    1.7712    0.0807 H         1 <0>         0.1037
     53 H16        -4.5178   -2.9636    0.5238 H         1 <0>         0.4260
     54 H17        -7.2452   -0.5504    0.5743 H         1 <0>         0.1392
     55 H18        -9.5082   -0.9850    1.4377 H         1 <0>         0.1225
     56 H19        -9.9699   -3.0434    2.7058 H         1 <0>         0.1209
     57 H20        -8.1708   -4.6717    3.1154 H         1 <0>         0.1235
     58 H21        -5.9933   -5.3833    2.8929 H         1 <0>         0.0712
     59 H22        -4.7829   -4.0561    2.8841 H         1 <0>         0.0685
     60 H23        -5.2058   -4.8962    1.3537 H         1 <0>         0.0643
     61 H24        -2.4357   -0.4241   -2.2835 H         1 <0>         0.1151
     62 H25        -3.0695   -1.2334   -4.5210 H         1 <0>         0.1214
     63 H26        -3.8576   -3.5475   -4.8155 H         1 <0>         0.1222
     64 H27        -4.0048   -5.0546   -2.8738 H         1 <0>         0.1240
     65 H28        -3.3630   -4.2478   -0.6377 H         1 <0>         0.1198
@<TRIPOS>BOND
     1    1    2 1
     2    1   39 1
     3    1   40 1
     4    1   41 1
     5    2    7 ar
     6    2    3 ar
     7    3    4 ar
     8    3   42 1
     9    4    5 ar
    10    4   43 1
    11    5    6 ar
    12    5   44 1
    13    6    7 ar
    14    6   45 1
    15    7    8 1
    16    8    9 am
    17    8   46 1
    18    9   10 2
    19    9   11 1
    20   11   12 1
    21   11   47 1
    22   11   48 1
    23   12   13 1
    24   13   19 1
    25   13   14 2
    26   14   15 1
    27   14   37 1
    28   15   16 1
    29   15   17 1
    30   15   31 1
    31   17   18 2
    32   17   21 1
    33   18   19 1
    34   18   20 1
    35   19   49 1
    36   20   50 1
    37   20   51 1
    38   20   52 1
    39   21   22 2
    40   21   23 am
    41   23   24 1
    42   23   53 1
    43   24   29 ar
    44   24   25 ar
    45   25   26 ar
    46   25   54 1
    47   26   27 ar
    48   26   55 1
    49   27   28 ar
    50   27   56 1
    51   28   29 ar
    52   28   57 1
    53   29   30 1
    54   30   58 1
    55   30   59 1
    56   30   60 1
    57   31   36 ar
    58   31   32 ar
    59   32   33 ar
    60   32   61 1
    61   33   34 ar
    62   33   62 1
    63   34   35 ar
    64   34   63 1
    65   35   36 ar
    66   35   64 1
    67   36   65 1
    68   37   38 3
@<TRIPOS>MOLECULE
ZINC36484915
   69    71     0     0     0
SMALL
USER_CHARGES

@<TRIPOS>ATOM
      1 C1          1.2035    0.9454   -2.6662 C.3       1 <0>        -0.1622
      2 C2          1.5367    1.7856   -1.4317 C.3       1 <0>        -0.0671
      3 C3          2.4825    2.9211   -1.8278 C.3       1 <0>        -0.1685
      4 C4          0.2485    2.3735   -0.8521 C.3       1 <0>        -0.1414
      5 C5          2.2121    0.9023   -0.3808 C.3       1 <0>        -0.1158
      6 C6          3.6904    0.7282   -0.7348 C.3       1 <0>         0.1807
      7 C7          4.4576    1.9976   -0.3595 C.3       1 <0>        -0.2082
      8 C8          4.2633   -0.4613    0.0383 C.3       1 <0>        -0.1601
      9 N1          3.8227    0.4850   -2.1734 N.am      1 <0>        -0.7221
     10 C9          5.0454    0.4257   -2.7372 C.2       1 <0>         0.5137
     11 O1          6.0362    0.5737   -2.0536 O.2       1 <0>        -0.5049
     12 C10         5.1815    0.1755   -4.2170 C.3       1 <0>         0.1734
     13 H1          4.7298   -0.7847   -4.4662 H         1 <0>         0.1074
     14 C11         4.4823    1.2722   -4.9783 C.ar      1 <0>        -0.1053
     15 C12         4.9583    2.5686   -4.9161 C.ar      1 <0>        -0.0861
     16 C13         4.3169    3.5746   -5.6143 C.ar      1 <0>        -0.1135
     17 C14         3.2000    3.2841   -6.3752 C.ar      1 <0>        -0.1014
     18 C15         2.7246    1.9876   -6.4382 C.ar      1 <0>        -0.1148
     19 C16         3.3685    0.9809   -5.7433 C.ar      1 <0>        -0.1029
     20 N2          6.6005    0.1567   -4.5807 N.am      1 <0>        -0.5456
     21 C17         7.0962    1.0758   -5.5110 C.ar      1 <0>         0.1544
     22 C18         7.9802    2.0680   -5.1060 C.ar      1 <0>        -0.1095
     23 C19         8.4686    2.9740   -6.0266 C.ar      1 <0>        -0.0949
     24 C20         8.0789    2.8949   -7.3510 C.ar      1 <0>        -0.1066
     25 C21         7.1982    1.9083   -7.7582 C.ar      1 <0>        -0.0225
     26 C22         6.7103    0.9949   -6.8423 C.ar      1 <0>        -0.1109
     27 Cl1         6.7112    1.8130   -9.4218 Cl        1 <0>        -0.0630
     28 C23         7.4283   -0.7463   -4.0187 C.2       1 <0>         0.6006
     29 O2          6.9850   -1.5901   -3.2631 O.2       1 <0>        -0.5001
     30 C24         8.8689   -0.7114   -4.3194 C.ar      1 <0>        -0.1782
     31 C25         9.7362    0.0608   -3.5327 C.ar      1 <0>         0.1640
     32 C26        11.0903    0.0860   -3.8242 C.ar      1 <0>        -0.1561
     33 C27        11.5876   -0.6463   -4.8861 C.ar      1 <0>        -0.0688
     34 C28        10.7418   -1.4108   -5.6680 C.ar      1 <0>        -0.1550
     35 C29         9.3850   -1.4548   -5.3910 C.ar      1 <0>         0.1566
     36 O3          8.5580   -2.2102   -6.1564 O.3       1 <0>        -0.4876
     37 O4          9.2507    0.7807   -2.4903 O.3       1 <0>        -0.4852
     38 H2          1.9237    1.1587   -3.4561 H         1 <0>         0.0638
     39 H3          1.2494   -0.1128   -2.4088 H         1 <0>         0.0601
     40 H4          0.2000    1.1917   -3.0133 H         1 <0>         0.0658
     41 H5          2.1039    3.4137   -2.7234 H         1 <0>         0.0489
     42 H6          2.5434    3.6437   -1.0140 H         1 <0>         0.0577
     43 H7          3.4740    2.5150   -2.0280 H         1 <0>         0.0923
     44 H8         -0.4253    1.5645   -0.5700 H         1 <0>         0.0553
     45 H9          0.4859    2.9721    0.0273 H         1 <0>         0.0553
     46 H10        -0.2327    3.0028   -1.6008 H         1 <0>         0.0559
     47 H11         2.1260    1.3726    0.5987 H         1 <0>         0.0802
     48 H12         1.7263   -0.0732   -0.3595 H         1 <0>         0.0698
     49 H13         4.5949    2.0331    0.7212 H         1 <0>         0.0557
     50 H14         5.4313    1.9919   -0.8494 H         1 <0>         0.0860
     51 H15         3.8933    2.8723   -0.6830 H         1 <0>         0.0908
     52 H16         3.7781   -1.3788   -0.2947 H         1 <0>         0.0528
     53 H17         5.3357   -0.5306   -0.1439 H         1 <0>         0.0733
     54 H18         4.0842   -0.3220    1.1045 H         1 <0>         0.0613
     55 H19         3.0302    0.3666   -2.7202 H         1 <0>         0.4032
     56 H20         5.8309    2.7955   -4.3216 H         1 <0>         0.1236
     57 H21         4.6883    4.5875   -5.5651 H         1 <0>         0.1232
     58 H22         2.6985    4.0702   -6.9202 H         1 <0>         0.1237
     59 H23         1.8518    1.7607   -7.0324 H         1 <0>         0.1262
     60 H24         2.9993   -0.0327   -5.7955 H         1 <0>         0.1248
     61 H25         8.2849    2.1309   -4.0718 H         1 <0>         0.1448
     62 H26         9.1556    3.7456   -5.7117 H         1 <0>         0.1369
     63 H27         8.4624    3.6048   -8.0690 H         1 <0>         0.1357
     64 H28         6.0265    0.2221   -7.1610 H         1 <0>         0.1341
     65 H29        11.7598    0.6802   -3.2200 H         1 <0>         0.1387
     66 H30        12.6445   -0.6207   -5.1067 H         1 <0>         0.1371
     67 H31        11.1406   -1.9789   -6.4955 H         1 <0>         0.1381
     68 H32         8.1891   -1.7415   -6.9175 H         1 <0>         0.3916
     69 H33         9.2380    0.2993   -1.6518 H         1 <0>         0.4009
@<TRIPOS>BOND
     1    1    2 1
     2    1   38 1
     3    1   39 1
     4    1   40 1
     5    2    3 1
     6    2    4 1
     7    2    5 1
     8    3   41 1
     9    3   42 1
    10    3   43 1
    11    4   44 1
    12    4   45 1
    13    4   46 1
    14    5    6 1
    15    5   47 1
    16    5   48 1
    17    6    7 1
    18    6    8 1
    19    6    9 1
    20    7   49 1
    21    7   50 1
    22    7   51 1
    23    8   52 1
    24    8   53 1
    25    8   54 1
    26    9   10 am
    27    9   55 1
    28   10   11 2
    29   10   12 1
    30   12   13 1
    31   12   14 1
    32   12   20 1
    33   14   19 ar
    34   14   15 ar
    35   15   16 ar
    36   15   56 1
    37   16   17 ar
    38   16   57 1
    39   17   18 ar
    40   17   58 1
    41   18   19 ar
    42   18   59 1
    43   19   60 1
    44   20   21 1
    45   20   28 am
    46   21   26 ar
    47   21   22 ar
    48   22   23 ar
    49   22   61 1
    50   23   24 ar
    51   23   62 1
    52   24   25 ar
    53   24   63 1
    54   25   26 ar
    55   25   27 1
    56   26   64 1
    57   28   29 2
    58   28   30 1
    59   30   35 ar
    60   30   31 ar
    61   31   32 ar
    62   31   37 1
    63   32   33 ar
    64   32   65 1
    65   33   34 ar
    66   33   66 1
    67   34   35 ar
    68   34   67 1
    69   35   36 1
    70   36   68 1
    71   37   69 1
@<TRIPOS>MOLECULE
ZINC40650223
   53    56     0     0     0
SMALL
USER_CHARGES

@<TRIPOS>ATOM
      1 C1         -0.5557    2.0475    0.4184 C.ar      1 <0>        -0.1112
      2 C2          0.6950    2.6016    0.6170 C.ar      1 <0>        -0.1220
      3 C3          1.8106    1.7873    0.6748 C.ar      1 <0>        -0.1051
      4 C4          1.6753    0.4187    0.5345 C.ar      1 <0>        -0.0751
      5 C5          0.4244   -0.1355    0.3368 C.ar      1 <0>        -0.0803
      6 C6         -0.6909    0.6790    0.2776 C.ar      1 <0>        -0.1212
      7 C7          2.8915   -0.4689    0.5966 C.3       1 <0>        -0.0061
      8 C8          2.8086   -1.3501    1.8163 C.ar      1 <0>        -0.0899
      9 C9          1.8626   -2.3561    1.8792 C.ar      1 <0>        -0.1078
     10 C10         1.7865   -3.1644    2.9980 C.ar      1 <0>        -0.1136
     11 C11         2.6567   -2.9669    4.0538 C.ar      1 <0>        -0.1109
     12 C12         3.6033   -1.9615    3.9905 C.ar      1 <0>        -0.1143
     13 C13         3.6822   -1.1560    2.8699 C.ar      1 <0>        -0.1041
     14 C14         2.9503   -1.3277   -0.6404 C.2       1 <0>         0.5236
     15 O1          2.0894   -1.2286   -1.4889 O.2       1 <0>        -0.5134
     16 N1          3.9597   -2.2057   -0.8039 N.am      1 <0>        -0.5096
     17 N2          4.0144   -3.0040   -1.9539 N.pl3     1 <0>        -0.4873
     18 C15         5.0525   -3.9072   -2.1219 C.ar      1 <0>         0.5204
     19 C16         5.1199   -4.7012   -3.2631 C.ar      1 <0>        -0.2632
     20 C17         6.1818   -5.5920   -3.3842 C.ar      1 <0>         0.5188
     21 N3          7.0891   -5.6524   -2.4108 N.ar      1 <0>        -0.5792
     22 C18         6.9901   -4.8838   -1.3457 C.ar      1 <0>         0.4176
     23 N4          6.0029   -4.0239   -1.1965 N.ar      1 <0>        -0.5877
     24 N5          6.2937   -6.4056   -4.5021 N.pl3     1 <0>        -0.6325
     25 C19         7.2911   -7.3853   -4.5572 C.ar      1 <0>         0.1642
     26 C20         7.8885   -7.8365   -3.3876 C.ar      1 <0>        -0.1060
     27 C21         8.8728   -8.8037   -3.4447 C.ar      1 <0>        -0.0797
     28 C22         9.2644   -9.3236   -4.6660 C.ar      1 <0>        -0.0405
     29 C23         8.6714   -8.8765   -5.8335 C.ar      1 <0>        -0.0772
     30 C24         7.6818   -7.9130   -5.7821 C.ar      1 <0>        -0.0596
     31 Cl1         6.9329   -7.3573   -7.2464 Cl        1 <0>        -0.0462
     32 Cl2        10.5023  -10.5388   -4.7335 Cl        1 <0>        -0.0517
     33 N6          4.0884   -4.6008   -4.3200 N.pl3     1 <0>         0.0267
     34 O2          4.2318   -3.8208   -5.2325 O.2       1 <0>        -0.1275
     35 O3          3.1025   -5.2989   -4.2708 O.3       1 <0>        -0.1254
     36 H1         -1.4278    2.6833    0.3776 H         1 <0>         0.1233
     37 H2          0.8007    3.6708    0.7266 H         1 <0>         0.1248
     38 H3          2.7878    2.2203    0.8293 H         1 <0>         0.1232
     39 H4          0.3188   -1.2047    0.2265 H         1 <0>         0.1197
     40 H5         -1.6681    0.2460    0.1227 H         1 <0>         0.1234
     41 H6          3.7887    0.1475    0.6540 H         1 <0>         0.1211
     42 H7          1.1827   -2.5103    1.0543 H         1 <0>         0.1205
     43 H8          1.0469   -3.9499    3.0474 H         1 <0>         0.1249
     44 H9          2.5968   -3.5980    4.9282 H         1 <0>         0.1252
     45 H10         4.2829   -1.8070    4.8155 H         1 <0>         0.1274
     46 H11         4.4242   -0.3729    2.8189 H         1 <0>         0.1276
     47 H12         4.6482   -2.2849   -0.1253 H         1 <0>         0.4396
     48 H13         3.3258   -2.9248   -2.6324 H         1 <0>         0.4464
     49 H14         7.7423   -4.9575   -0.5742 H         1 <0>         0.2248
     50 H15         5.6806   -6.2953   -5.2456 H         1 <0>         0.4259
     51 H16         7.5838   -7.4311   -2.4341 H         1 <0>         0.1796
     52 H17         9.3377   -9.1544   -2.5352 H         1 <0>         0.1481
     53 H18         8.9789   -9.2840   -6.7853 H         1 <0>         0.1517
@<TRIPOS>BOND
     1    1    6 ar
     2    1    2 ar
     3    1   36 1
     4    2    3 ar
     5    2   37 1
     6    3    4 ar
     7    3   38 1
     8    4    5 ar
     9    4    7 1
    10    5    6 ar
    11    5   39 1
    12    6   40 1
    13    7    8 1
    14    7   14 1
    15    7   41 1
    16    8   13 ar
    17    8    9 ar
    18    9   10 ar
    19    9   42 1
    20   10   11 ar
    21   10   43 1
    22   11   12 ar
    23   11   44 1
    24   12   13 ar
    25   12   45 1
    26   13   46 1
    27   14   15 2
    28   14   16 am
    29   16   17 1
    30   16   47 1
    31   17   18 1
    32   17   48 1
    33   18   23 ar
    34   18   19 ar
    35   19   20 ar
    36   19   33 1
    37   20   21 ar
    38   20   24 1
    39   21   22 ar
    40   22   23 ar
    41   22   49 1
    42   24   25 1
    43   24   50 1
    44   25   30 ar
    45   25   26 ar
    46   26   27 ar
    47   26   51 1
    48   27   28 ar
    49   27   52 1
    50   28   29 ar
    51   28   32 1
    52   29   30 ar
    53   29   53 1
    54   30   31 1
    55   33   34 2
    56   33   35 1
@<TRIPOS>MOLECULE
ZINC22836020
   45    47     0     0     0
SMALL
USER_CHARGES

@<TRIPOS>ATOM
      1 C1         -0.1531    1.5532   -0.0705 C.3       1 <0>        -0.1538
      2 C2         -0.1352    0.0273   -0.1807 C.3       1 <0>        -0.1121
      3 C3         -1.4865   -0.5324    0.2682 C.3       1 <0>        -0.1340
      4 C4         -1.4689   -2.0353    0.1596 C.2       1 <0>         0.5059
      5 O1         -0.4736   -2.6029   -0.2377 O.2       1 <0>        -0.4635
      6 N1         -2.5593   -2.7487    0.5041 N.am      1 <0>        -0.6207
      7 C5         -2.5431   -4.1310    0.4042 C.2       1 <0>         0.3747
      8 N2         -1.5699   -4.9158    0.0063 N.2       1 <0>        -0.5105
      9 C6         -1.6942   -6.2609   -0.0409 C.ar      1 <0>         0.1178
     10 C7         -0.7302   -7.2124   -0.4474 C.ar      1 <0>        -0.0626
     11 C8         -1.0131   -8.5421   -0.4382 C.ar      1 <0>        -0.0970
     12 C9         -2.2563   -9.0206   -0.0303 C.ar      1 <0>         0.1191
     13 C10        -3.2292   -8.1168    0.3766 C.ar      1 <0>        -0.0030
     14 C11        -2.9465   -6.7738    0.3679 C.ar      1 <0>        -0.1480
     15 S1         -3.8399   -5.2980    0.7922 S.3       1 <0>         0.0229
     16 N3         -2.5219  -10.3958   -0.0309 N.pl3     1 <0>        -0.6142
     17 C12        -3.1352  -10.9642    1.0262 C.2       1 <0>         0.5090
     18 S2         -3.6870   -9.9900    2.3213 S.2       1 <0>        -0.4735
     19 N4         -3.3140  -12.2995    1.0636 N.am      1 <0>        -0.6382
     20 C13        -3.9272  -12.8679    2.1207 C.2       1 <0>         0.5300
     21 O2         -4.3190  -12.1763    3.0401 O.2       1 <0>        -0.3713
     22 C14        -4.1232  -14.3312    2.1617 C.ar      1 <0>        -0.1261
     23 C15        -3.6691  -15.1296    1.1097 C.ar      1 <0>        -0.0505
     24 C16        -3.8550  -16.4960    1.1548 C.ar      1 <0>        -0.0984
     25 C17        -4.4904  -17.0766    2.2401 C.ar      1 <0>        -0.0469
     26 C18        -4.9426  -16.2927    3.2853 C.ar      1 <0>        -0.1080
     27 C19        -4.7585  -14.9239    3.2561 C.ar      1 <0>         0.0300
     28 Cl1        -5.3206  -13.9419    4.5727 Cl        1 <0>        -0.0073
     29 Br1        -3.2415  -17.5788   -0.2690 Br        1 <0>        -0.0255
     30 H1          0.8096    1.9519   -0.3904 H         1 <0>         0.0606
     31 H2         -0.9420    1.9542   -0.7068 H         1 <0>         0.0562
     32 H3         -0.3397    1.8406    0.9643 H         1 <0>         0.0563
     33 H4          0.0514   -0.2601   -1.2155 H         1 <0>         0.0720
     34 H5          0.6537   -0.3737    0.4556 H         1 <0>         0.0722
     35 H6         -1.6731   -0.2450    1.3030 H         1 <0>         0.1026
     36 H7         -2.2754   -0.1313   -0.3681 H         1 <0>         0.1024
     37 H8         -3.3554   -2.2947    0.8219 H         1 <0>         0.4302
     38 H9          0.2447   -6.8779   -0.7700 H         1 <0>         0.1407
     39 H10        -0.2562   -9.2443   -0.7551 H         1 <0>         0.1369
     40 H11        -4.1994   -8.4674    0.6961 H         1 <0>         0.1572
     41 H12        -2.2645  -10.9391   -0.7921 H         1 <0>         0.4112
     42 H13        -3.0013  -12.8515    0.3298 H         1 <0>         0.4088
     43 H14        -3.1739  -14.6784    0.2626 H         1 <0>         0.1406
     44 H15        -4.6334  -18.1467    2.2698 H         1 <0>         0.1520
     45 H16        -5.4372  -16.7520    4.1285 H         1 <0>         0.1558
@<TRIPOS>BOND
     1    1    2 1
     2    1   30 1
     3    1   31 1
     4    1   32 1
     5    2    3 1
     6    2   33 1
     7    2   34 1
     8    3    4 1
     9    3   35 1
    10    3   36 1
    11    4    5 2
    12    4    6 am
    13    6    7 1
    14    6   37 1
    15    7   15 1
    16    7    8 2
    17    8    9 1
    18    9   14 ar
    19    9   10 ar
    20   10   11 ar
    21   10   38 1
    22   11   12 ar
    23   11   39 1
    24   12   13 ar
    25   12   16 1
    26   13   14 ar
    27   13   40 1
    28   14   15 1
    29   16   17 1
    30   16   41 1
    31   17   18 2
    32   17   19 1
    33   19   20 am
    34   19   42 1
    35   20   21 2
    36   20   22 1
    37   22   27 ar
    38   22   23 ar
    39   23   24 ar
    40   23   43 1
    41   24   25 ar
    42   24   29 1
    43   25   26 ar
    44   25   44 1
    45   26   27 ar
    46   26   45 1
    47   27   28 1
@<TRIPOS>MOLECULE
ZINC02640118
   50    52     0     0     0
SMALL
USER_CHARGES
3-[4-[(2,5-dichloro-3-thienyl)sulfonylamino]benzoyl]amino-1-(2,5-dimethylphenyl)-thiourea
@<TRIPOS>ATOM
      1 C1          3.0166   -2.6118    1.2989 C.3       1 <0>        -0.1139
      2 C2          2.9630   -1.2641    0.6267 C.ar      1 <0>        -0.0805
      3 C3          4.0958   -0.7464    0.0254 C.ar      1 <0>        -0.1087
      4 C4          4.0509    0.4899   -0.5919 C.ar      1 <0>        -0.1113
      5 C5          2.8736    1.2121   -0.6100 C.ar      1 <0>        -0.0958
      6 C6          1.7344    0.6952   -0.0073 C.ar      1 <0>         0.1200
      7 C7          1.7843   -0.5448    0.6167 C.ar      1 <0>        -0.0736
      8 N1          0.5406    1.4243   -0.0234 N.pl3     1 <0>        -0.6248
      9 C8         -0.6371    0.7857   -0.1709 C.2       1 <0>         0.5505
     10 S1         -0.6662   -0.9041   -0.4439 S.2       1 <0>        -0.5554
     11 N2         -1.7916    1.4784   -0.1091 N.pl3     1 <0>        -0.4616
     12 N3         -1.7677    2.8612    0.1143 N.am      1 <0>        -0.5490
     13 C9         -2.9222    3.5539    0.1761 C.2       1 <0>         0.5715
     14 O1         -3.9845    2.9786    0.0380 O.2       1 <0>        -0.5115
     15 C10        -2.8971    5.0100    0.4113 C.ar      1 <0>        -0.1427
     16 C11        -1.6769    5.6720    0.5760 C.ar      1 <0>        -0.0604
     17 C12        -1.6565    7.0313    0.7890 C.ar      1 <0>        -0.1550
     18 C13        -2.8499    7.7453    0.8531 C.ar      1 <0>         0.1788
     19 C14        -4.0670    7.0881    0.6952 C.ar      1 <0>        -0.1329
     20 C15        -4.0937    5.7299    0.4757 C.ar      1 <0>        -0.0286
     21 N4         -2.8263    9.1178    1.0747 N.pl3     1 <0>        -1.0523
     22 S2         -1.8446    9.7501    2.2490 S.o2      1 <0>         2.6979
     23 O2         -0.5559    9.1862    2.0480 O.2       1 <0>        -0.9341
     24 O3         -2.0698   11.1531    2.2546 O.2       1 <0>        -0.9248
     25 C16        -2.4251    9.1407    3.7970 C.2       1 <0>        -0.6899
     26 C17        -1.6244    8.3240    4.5751 C.2       1 <0>        -0.0738
     27 C18        -2.1002    7.8772    5.7638 C.2       1 <0>        -0.1244
     28 S3         -3.7303    8.6040    5.8064 S.3       1 <0>         0.2272
     29 C19        -3.6657    9.4605    4.2414 C.2       1 <0>        -0.0230
     30 Cl1        -4.8768   10.4478    3.4850 Cl        1 <0>         0.0612
     31 Cl2        -1.3274    6.8570    6.9367 Cl        1 <0>         0.0428
     32 C20         2.8254    2.5593   -1.2836 C.3       1 <0>        -0.1192
     33 H1          3.2927   -2.4850    2.3457 H         1 <0>         0.0697
     34 H2          2.0383   -3.0882    1.2363 H         1 <0>         0.0709
     35 H3          3.7577   -3.2370    0.8008 H         1 <0>         0.0671
     36 H4          5.0177   -1.3090    0.0385 H         1 <0>         0.1252
     37 H5          4.9373    0.8915   -1.0602 H         1 <0>         0.1281
     38 H6          0.9011   -0.9476    1.0902 H         1 <0>         0.1524
     39 H7          0.5604    2.3894    0.0716 H         1 <0>         0.3989
     40 H8         -2.6390    1.0194   -0.2193 H         1 <0>         0.4620
     41 H9         -0.9203    3.3202    0.2244 H         1 <0>         0.4192
     42 H10        -0.7510    5.1178    0.5315 H         1 <0>         0.1299
     43 H11        -0.7139    7.5441    0.9112 H         1 <0>         0.1694
     44 H12        -4.9911    7.6448    0.7447 H         1 <0>         0.1436
     45 H13        -5.0382    5.2206    0.3529 H         1 <0>         0.1486
     46 H14        -3.3847    9.7049    0.5415 H         1 <0>         0.4343
     47 H15        -0.6338    8.0501    4.2432 H         1 <0>         0.1700
     48 H16         3.0769    3.3359   -0.5612 H         1 <0>         0.0730
     49 H17         3.5420    2.5809   -2.1046 H         1 <0>         0.0770
     50 H18         1.8223    2.7356   -1.6721 H         1 <0>         0.0576
@<TRIPOS>BOND
     1    1    2 1
     2    1   33 1
     3    1   34 1
     4    1   35 1
     5    2    7 ar
     6    2    3 ar
     7    3    4 ar
     8    3   36 1
     9    4    5 ar
    10    4   37 1
    11    5    6 ar
    12    5   32 1
    13    6    7 ar
    14    6    8 1
    15    7   38 1
    16    8    9 1
    17    8   39 1
    18    9   10 2
    19    9   11 1
    20   11   12 1
    21   11   40 1
    22   12   13 am
    23   12   41 1
    24   13   14 2
    25   13   15 1
    26   15   20 ar
    27   15   16 ar
    28   16   17 ar
    29   16   42 1
    30   17   18 ar
    31   17   43 1
    32   18   19 ar
    33   18   21 1
    34   19   20 ar
    35   19   44 1
    36   20   45 1
    37   21   22 1
    38   21   46 1
    39   22   23 2
    40   22   24 2
    41   22   25 1
    42   25   29 2
    43   25   26 1
    44   26   27 2
    45   26   47 1
    46   27   28 1
    47   27   31 1
    48   28   29 1
    49   29   30 1
    50   32   48 1
    51   32   49 1
    52   32   50 1
@<TRIPOS>MOLECULE
ZINC12250165
   68    71     0     0     0
SMALL
USER_CHARGES
(4R)-5-cyano-N-(4-ethylphenyl)-6-[2-[(2-ethylphenyl)amino]-2-oxo-ethyl]sulfanyl-4-(2-furyl)-2-methyl-1,4-dihydropyridine-3-carboxamide
@<TRIPOS>ATOM
      1 C1         16.0086   10.7223   -0.2788 C.3       1 <0>        -0.1480
      2 C2         14.9594   11.7882    0.0436 C.3       1 <0>        -0.0863
      3 C3         13.5830   11.2346   -0.2212 C.ar      1 <0>        -0.0966
      4 C4         12.8957   10.5833    0.7866 C.ar      1 <0>        -0.1005
      5 C5         11.6344   10.0745    0.5471 C.ar      1 <0>        -0.1193
      6 C6         11.0563   10.2174   -0.7077 C.ar      1 <0>         0.1445
      7 C7         11.7516   10.8670   -1.7194 C.ar      1 <0>        -0.1404
      8 C8         13.0103   11.3786   -1.4716 C.ar      1 <0>        -0.0998
      9 N1          9.7792    9.7033   -0.9536 N.am      1 <0>        -0.6761
     10 C9          8.8461    9.7232    0.0187 C.2       1 <0>         0.5885
     11 O1          9.1372   10.1159    1.1341 O.2       1 <0>        -0.5171
     12 C10         7.5277    9.2876   -0.2566 C.2       1 <0>        -0.2554
     13 C11         7.2453    7.9766   -0.1908 C.2       1 <0>         0.1976
     14 N2          5.9823    7.5142   -0.4352 N.pl3     1 <0>        -0.6468
     15 C12         4.9096    8.3771   -0.4067 C.2       1 <0>         0.1720
     16 C13         5.1030    9.7211   -0.4826 C.2       1 <0>        -0.1227
     17 C14         6.4815   10.3040   -0.6140 C.3       1 <0>         0.1413
     18 H1          6.5692   11.1549    0.0775 H         1 <0>         0.1152
     19 C15         6.6955   10.7552   -2.0358 C.2       1 <0>        -0.0085
     20 C16         6.9702   12.0118   -2.4295 C.2       1 <0>        -0.1973
     21 C17         7.0915   11.9826   -3.8378 C.2       1 <0>        -0.2087
     22 C18         6.8836   10.7099   -4.2205 C.2       1 <0>        -0.0433
     23 O2          6.6500    9.9699   -3.1244 O.3       1 <0>        -0.1664
     24 C19         3.9714   10.5974   -0.4360 C.1       1 <0>         0.2545
     25 N3          3.0737   11.2925   -0.3990 N.1       1 <0>        -0.4032
     26 S1          3.2748    7.7355   -0.2636 S.3       1 <0>         0.0467
     27 C20         3.6366    5.9630   -0.2063 C.3       1 <0>        -0.1847
     28 C21         2.3484    5.1911   -0.0811 C.2       1 <0>         0.5352
     29 O3          1.2898    5.7813   -0.0351 O.2       1 <0>        -0.4969
     30 N4          2.3726    3.8449   -0.0202 N.am      1 <0>        -0.6750
     31 C22         1.1736    3.1240    0.0048 C.ar      1 <0>         0.1450
     32 C23         0.0630    3.6430    0.6577 C.ar      1 <0>        -0.1186
     33 C24        -1.1187    2.9289    0.6808 C.ar      1 <0>        -0.1055
     34 C25        -1.1987    1.7007    0.0500 C.ar      1 <0>        -0.1272
     35 C26        -0.0933    1.1787   -0.5959 C.ar      1 <0>        -0.1015
     36 C27         1.0917    1.8881   -0.6227 C.ar      1 <0>        -0.1049
     37 C28         2.2944    1.3210   -1.3318 C.3       1 <0>        -0.0872
     38 C29         3.1813    0.5867   -0.3242 C.3       1 <0>        -0.1510
     39 C30         8.3367    6.9995    0.1631 C.3       1 <0>        -0.1327
     40 H2         17.0132   11.1264   -0.0855 H         1 <0>         0.0578
     41 H3         15.9263   10.4352   -1.3375 H         1 <0>         0.0554
     42 H4         15.8405    9.8390    0.3548 H         1 <0>         0.0556
     43 H5         15.0417   12.0753    1.1023 H         1 <0>         0.0716
     44 H6         15.1274   12.6716   -0.5900 H         1 <0>         0.0713
     45 H7         13.3456   10.4729    1.7622 H         1 <0>         0.1228
     46 H8         11.0979    9.5662    1.3347 H         1 <0>         0.1369
     47 H9         11.3069   10.9756   -2.6975 H         1 <0>         0.1235
     48 H10        13.5498   11.8878   -2.2566 H         1 <0>         0.1233
     49 H11         9.5363    9.2827   -1.9406 H         1 <0>         0.4325
     50 H12         5.8197    6.4489   -0.6558 H         1 <0>         0.4385
     51 H13         7.0770   12.8771   -1.7921 H         1 <0>         0.1450
     52 H14         7.3089   12.8212   -4.4826 H         1 <0>         0.1471
     53 H15         6.9060   10.3442   -5.2365 H         1 <0>         0.2016
     54 H16         4.1546    5.6645   -1.1296 H         1 <0>         0.1275
     55 H17         4.2788    5.7477    0.6604 H         1 <0>         0.1312
     56 H18         3.3349    3.3129    0.0099 H         1 <0>         0.4338
     57 H19         0.1234    4.6042    1.1463 H         1 <0>         0.1386
     58 H20        -1.9827    3.3319    1.1883 H         1 <0>         0.1264
     59 H21        -2.1253    1.1461    0.0658 H         1 <0>         0.1246
     60 H22        -0.1576    0.2173   -1.0837 H         1 <0>         0.1263
     61 H23         1.9633    0.6175   -2.1099 H         1 <0>         0.0785
     62 H24         2.8658    2.1385   -1.7958 H         1 <0>         0.0695
     63 H25         4.0592    0.1728   -0.8418 H         1 <0>         0.0629
     64 H26         2.6099   -0.2308    0.1397 H         1 <0>         0.0617
     65 H27         3.5124    1.2903    0.4539 H         1 <0>         0.0510
     66 H28         7.9269    5.9787    0.1699 H         1 <0>         0.0789
     67 H29         8.7361    7.2409    1.1592 H         1 <0>         0.0960
     68 H30         9.1437    7.0657   -0.5815 H         1 <0>         0.0915
@<TRIPOS>BOND
     1    1    2 1
     2    1   40 1
     3    1   41 1
     4    1   42 1
     5    2    3 1
     6    2   43 1
     7    2   44 1
     8    3    8 ar
     9    3    4 ar
    10    4    5 ar
    11    4   45 1
    12    5    6 ar
    13    5   46 1
    14    6    7 ar
    15    6    9 1
    16    7    8 ar
    17    7   47 1
    18    8   48 1
    19    9   10 am
    20    9   49 1
    21   10   11 2
    22   10   12 1
    23   12   17 1
    24   12   13 2
    25   13   14 1
    26   13   39 1
    27   14   15 1
    28   14   50 1
    29   15   16 2
    30   15   26 1
    31   16   17 1
    32   16   24 1
    33   17   18 1
    34   17   19 1
    35   19   23 1
    36   19   20 2
    37   20   21 1
    38   20   51 1
    39   21   22 2
    40   21   52 1
    41   22   23 1
    42   22   53 1
    43   24   25 3
    44   26   27 1
    45   27   28 1
    46   27   54 1
    47   27   55 1
    48   28   29 2
    49   28   30 am
    50   30   31 1
    51   30   56 1
    52   31   36 ar
    53   31   32 ar
    54   32   33 ar
    55   32   57 1
    56   33   34 ar
    57   33   58 1
    58   34   35 ar
    59   34   59 1
    60   35   36 ar
    61   35   60 1
    62   36   37 1
    63   37   38 1
    64   37   61 1
    65   37   62 1
    66   38   63 1
    67   38   64 1
    68   38   65 1
    69   39   66 1
    70   39   67 1
    71   39   68 1
@<TRIPOS>MOLECULE
ZINC35729765
   61    63     0     0     0
SMALL
USER_CHARGES

@<TRIPOS>ATOM
      1 C1         -1.2445    2.1285   -0.7672 C.3       1 <0>        -0.1287
      2 C2         -0.9473    0.6678   -0.5456 C.2       1 <0>         0.2383
      3 C3         -1.9241   -0.1475   -0.0915 C.2       1 <0>        -0.2596
      4 C4         -1.5823   -1.6089    0.1174 C.3       1 <0>         0.2209
      5 H1         -1.7790   -1.8542    1.1610 H         1 <0>         0.1038
      6 N1         -0.2036   -2.0225   -0.1941 N.pl3     1 <0>        -0.6452
      7 C5          0.6605   -1.0895   -0.6403 C.2       1 <0>         0.5480
      8 S1          2.2665   -1.5561   -1.0064 S.2       1 <0>        -0.5876
      9 N2          0.3025    0.1892   -0.8120 N.pl3     1 <0>        -0.4945
     10 C6          1.3113    1.1288   -1.3077 C.3       1 <0>         0.0455
     11 C7         -2.5164   -2.4307   -0.7329 C.ar      1 <0>        -0.0956
     12 C8         -2.2645   -2.5861   -2.0839 C.ar      1 <0>        -0.1080
     13 C9         -3.1194   -3.3389   -2.8675 C.ar      1 <0>        -0.0999
     14 C10        -4.2281   -3.9388   -2.3027 C.ar      1 <0>        -0.1038
     15 C11        -4.4836   -3.7851   -0.9467 C.ar      1 <0>         0.1570
     16 C12        -3.6200   -3.0326   -0.1612 C.ar      1 <0>        -0.0968
     17 N3         -5.6059   -4.3916   -0.3715 N.am      1 <0>        -0.6775
     18 C13        -6.7501   -4.4971   -1.0759 C.2       1 <0>         0.7092
     19 O1         -6.8361   -3.9864   -2.1760 O.2       1 <0>        -0.5455
     20 N4         -7.7989   -5.1688   -0.5610 N.am      1 <0>        -0.6845
     21 C14        -8.9561   -5.3524   -1.3261 C.ar      1 <0>         0.2153
     22 C15        -9.3054   -4.4199   -2.2944 C.ar      1 <0>        -0.1311
     23 C16       -10.4480   -4.6040   -3.0477 C.ar      1 <0>        -0.0646
     24 C17       -11.2444   -5.7152   -2.8387 C.ar      1 <0>        -0.1366
     25 C18       -10.8994   -6.6453   -1.8756 C.ar      1 <0>        -0.0519
     26 C19        -9.7545   -6.4701   -1.1229 C.ar      1 <0>        -0.2186
     27 C20        -9.3759   -7.4876   -0.0777 C.3       1 <0>         0.5090
     28 F1        -10.3263   -8.5140   -0.0602 F         1 <0>        -0.1707
     29 F2         -8.1186   -8.0214   -0.3803 F         1 <0>        -0.1743
     30 F3         -9.3312   -6.8719    1.1778 F         1 <0>        -0.1808
     31 C21        -3.2212    0.3461    0.1801 C.2       1 <0>         0.5364
     32 O2         -3.4730    1.5237    0.0053 O.2       1 <0>        -0.5109
     33 O3         -4.1797   -0.4889    0.6330 O.3       1 <0>        -0.3332
     34 C22        -5.4669    0.0777    0.8863 C.3       1 <0>         0.0716
     35 C23        -6.4142   -1.0132    1.3897 C.3       1 <0>         0.0627
     36 O4         -5.9571   -1.4941    2.6554 O.3       1 <0>        -0.3819
     37 C24        -6.7761   -2.5217    3.2170 C.3       1 <0>         0.0312
     38 H2         -0.3294    2.6458   -1.0556 H         1 <0>         0.0808
     39 H3         -1.9857    2.2323   -1.5596 H         1 <0>         0.1066
     40 H4         -1.6333    2.5639    0.1533 H         1 <0>         0.1115
     41 H5          0.0759   -2.9444   -0.0804 H         1 <0>         0.4475
     42 H6          1.7783    1.6385   -0.4650 H         1 <0>         0.0869
     43 H7          2.0706    0.5841   -1.8689 H         1 <0>         0.1289
     44 H8          0.8357    1.8629   -1.9581 H         1 <0>         0.0944
     45 H9         -1.3983   -2.1180   -2.5278 H         1 <0>         0.1143
     46 H10        -2.9203   -3.4577   -3.9223 H         1 <0>         0.1286
     47 H11        -4.8957   -4.5264   -2.9154 H         1 <0>         0.1358
     48 H12        -3.8136   -2.9148    0.8948 H         1 <0>         0.1359
     49 H13        -5.5604   -4.7360    0.5342 H         1 <0>         0.4090
     50 H14        -7.7517   -5.5250    0.3400 H         1 <0>         0.4093
     51 H15        -8.6843   -3.5516   -2.4576 H         1 <0>         0.1615
     52 H16       -10.7201   -3.8792   -3.8008 H         1 <0>         0.1378
     53 H17       -12.1379   -5.8565   -3.4287 H         1 <0>         0.1378
     54 H18       -11.5236   -7.5118   -1.7145 H         1 <0>         0.1434
     55 H19        -5.3779    0.8585    1.6416 H         1 <0>         0.0786
     56 H20        -5.8629    0.5062   -0.0344 H         1 <0>         0.0838
     57 H21        -7.4176   -0.6014    1.4983 H         1 <0>         0.0721
     58 H22        -6.4344   -1.8354    0.6744 H         1 <0>         0.0588
     59 H23        -7.7870   -2.1411    3.3635 H         1 <0>         0.0437
     60 H24        -6.8038   -3.3751    2.5396 H         1 <0>         0.0357
     61 H25        -6.3623   -2.8325    4.1763 H         1 <0>         0.0904
@<TRIPOS>BOND
     1    1    2 1
     2    1   38 1
     3    1   39 1
     4    1   40 1
     5    2    9 1
     6    2    3 2
     7    3    4 1
     8    3   31 1
     9    4    5 1
    10    4    6 1
    11    4   11 1
    12    6    7 1
    13    6   41 1
    14    7    8 2
    15    7    9 1
    16    9   10 1
    17   10   42 1
    18   10   43 1
    19   10   44 1
    20   11   16 ar
    21   11   12 ar
    22   12   13 ar
    23   12   45 1
    24   13   14 ar
    25   13   46 1
    26   14   15 ar
    27   14   47 1
    28   15   16 ar
    29   15   17 1
    30   16   48 1
    31   17   18 am
    32   17   49 1
    33   18   19 2
    34   18   20 am
    35   20   21 1
    36   20   50 1
    37   21   26 ar
    38   21   22 ar
    39   22   23 ar
    40   22   51 1
    41   23   24 ar
    42   23   52 1
    43   24   25 ar
    44   24   53 1
    45   25   26 ar
    46   25   54 1
    47   26   27 1
    48   27   28 1
    49   27   29 1
    50   27   30 1
    51   31   32 2
    52   31   33 1
    53   33   34 1
    54   34   35 1
    55   34   55 1
    56   34   56 1
    57   35   36 1
    58   35   57 1
    59   35   58 1
    60   36   37 1
    61   37   59 1
    62   37   60 1
    63   37   61 1
@<TRIPOS>MOLECULE
ZINC40173233
   60    63     0     0     0
SMALL
USER_CHARGES

@<TRIPOS>ATOM
      1 C1         -0.0187    1.5258    0.0104 C.3       1 <0>        -0.1527
      2 C2          0.0021   -0.0041    0.0020 C.3       1 <0>         0.0560
      3 O1          0.6709   -0.4649   -1.1737 O.3       1 <0>        -0.3445
      4 C3          0.7760   -1.8000   -1.3349 C.2       1 <0>         0.5313
      5 O2          0.3117   -2.5519   -0.4991 O.2       1 <0>        -0.4926
      6 C4          1.4489   -2.3441   -2.5162 C.2       1 <0>        -0.2071
      7 C5          2.8755   -2.6194   -2.5155 C.2       1 <0>        -0.0589
      8 C6          3.3426   -3.1174   -3.6803 C.2       1 <0>        -0.2175
      9 S1          1.9224   -3.2119   -4.7304 S.3       1 <0>         0.3045
     10 C7          0.7503   -2.6240   -3.6814 C.2       1 <0>         0.0376
     11 N1         -0.6038   -2.4553   -3.9246 N.am      1 <0>        -0.6122
     12 C8         -1.1185   -2.7827   -5.1264 C.2       1 <0>         0.4936
     13 O3         -0.3968   -3.2249   -5.9950 O.2       1 <0>        -0.4681
     14 C9         -2.5907   -2.5994   -5.3908 C.3       1 <0>         0.1236
     15 H1         -2.8536   -1.5486   -5.2691 H         1 <0>         0.1406
     16 C10        -3.3957   -3.4444   -4.4014 C.3       1 <0>        -0.1688
     17 N2         -2.8978   -3.0244   -6.7588 N.pl3     1 <0>        -0.4938
     18 C11        -2.7070   -4.2756   -7.2728 C.2       1 <0>         0.5147
     19 N3         -3.1004   -4.2647   -8.5225 N.2       1 <0>        -0.3646
     20 N4         -3.5563   -2.9742   -8.8219 N.2       1 <0>        -0.2912
     21 C12        -3.4311   -2.2402   -7.7430 C.2       1 <0>         0.1992
     22 S2         -3.8695   -0.5405   -7.5898 S.3       1 <0>        -0.0037
     23 C13        -4.5093   -0.1028   -9.2299 C.3       1 <0>        -0.0601
     24 C14        -4.9259    1.3454   -9.2364 C.ar      1 <0>        -0.0762
     25 C15        -6.2173    1.6949   -8.8883 C.ar      1 <0>        -0.0846
     26 C16        -6.5995    3.0232   -8.8942 C.ar      1 <0>        -0.1148
     27 C17        -5.6907    4.0031   -9.2483 C.ar      1 <0>        -0.0954
     28 C18        -4.3994    3.6550   -9.5966 C.ar      1 <0>        -0.1106
     29 C19        -4.0146    2.3259   -9.5853 C.ar      1 <0>        -0.0177
     30 Cl1        -2.3908    1.8884  -10.0163 Cl        1 <0>        -0.0546
     31 N5         -2.1867   -5.3678   -6.5903 N.pl3     1 <0>        -0.8221
     32 C20         4.7568   -3.4984   -3.9930 C.3       1 <0>        -0.0360
     33 C21         5.6694   -2.8873   -2.9196 C.3       1 <0>        -0.1153
     34 C22         5.0820   -3.1907   -1.5383 C.3       1 <0>        -0.1189
     35 C23         3.7989   -2.3832   -1.3294 C.3       1 <0>        -0.0626
     36 H2          1.0039    1.9031    0.0027 H         1 <0>         0.0682
     37 H3         -0.5459    1.8868   -0.8726 H         1 <0>         0.0670
     38 H4         -0.5289    1.8773    0.9072 H         1 <0>         0.0818
     39 H5          0.5293   -0.3651    0.8851 H         1 <0>         0.0698
     40 H6         -1.0205   -0.3814    0.0098 H         1 <0>         0.0677
     41 H7         -1.1810   -2.1017   -3.2298 H         1 <0>         0.4201
     42 H8         -3.1328   -4.4952   -4.5231 H         1 <0>         0.0745
     43 H9         -3.1672   -3.1281   -3.3836 H         1 <0>         0.0900
     44 H10        -4.4606   -3.3118   -4.5926 H         1 <0>         0.0939
     45 H11        -3.7317   -0.2606   -9.9772 H         1 <0>         0.1130
     46 H12        -5.3700   -0.7295   -9.4632 H         1 <0>         0.1125
     47 H13        -6.9277    0.9299   -8.6119 H         1 <0>         0.1376
     48 H14        -7.6086    3.2957   -8.6225 H         1 <0>         0.1344
     49 H15        -5.9900    5.0408   -9.2532 H         1 <0>         0.1359
     50 H16        -3.6897    4.4205   -9.8735 H         1 <0>         0.1380
     51 H17        -1.9215   -5.2779   -5.6616 H         1 <0>         0.4032
     52 H18        -2.0885   -6.2203   -7.0425 H         1 <0>         0.4261
     53 H19         4.8553   -4.5839   -3.9845 H         1 <0>         0.0847
     54 H20         5.0331   -3.1115   -4.9739 H         1 <0>         0.0834
     55 H21         6.6657   -3.3229   -2.9963 H         1 <0>         0.0760
     56 H22         5.7289   -1.8083   -3.0620 H         1 <0>         0.0695
     57 H23         4.8560   -4.2546   -1.4667 H         1 <0>         0.0681
     58 H24         5.8072   -2.9233   -0.7697 H         1 <0>         0.0724
     59 H25         4.0413   -1.3227   -1.2602 H         1 <0>         0.0815
     60 H26         3.3072   -2.7088   -0.4127 H         1 <0>         0.0743
@<TRIPOS>BOND
     1    1    2 1
     2    1   36 1
     3    1   37 1
     4    1   38 1
     5    2    3 1
     6    2   39 1
     7    2   40 1
     8    3    4 1
     9    4    5 2
    10    4    6 1
    11    6   10 2
    12    6    7 1
    13    7   35 1
    14    7    8 2
    15    8    9 1
    16    8   32 1
    17    9   10 1
    18   10   11 1
    19   11   12 am
    20   11   41 1
    21   12   13 2
    22   12   14 1
    23   14   15 1
    24   14   16 1
    25   14   17 1
    26   16   42 1
    27   16   43 1
    28   16   44 1
    29   17   21 1
    30   17   18 1
    31   18   19 2
    32   18   31 1
    33   19   20 1
    34   20   21 2
    35   21   22 1
    36   22   23 1
    37   23   24 1
    38   23   45 1
    39   23   46 1
    40   24   29 ar
    41   24   25 ar
    42   25   26 ar
    43   25   47 1
    44   26   27 ar
    45   26   48 1
    46   27   28 ar
    47   27   49 1
    48   28   29 ar
    49   28   50 1
    50   29   30 1
    51   31   51 1
    52   31   52 1
    53   32   33 1
    54   32   53 1
    55   32   54 1
    56   33   34 1
    57   33   55 1
    58   33   56 1
    59   34   35 1
    60   34   57 1
    61   34   58 1
    62   35   59 1
    63   35   60 1
@<TRIPOS>MOLECULE
ZINC01812703
   82    86     0     0     0
SMALL
USER_CHARGES

@<TRIPOS>ATOM
      1 C1          0.5871    0.9358    0.3621 C.3       1 <0>        -0.2088
      2 C2         -0.3690   -0.1670   -0.0132 C.2       1 <0>         0.3379
      3 O1         -1.2651   -0.4706    0.7372 O.2       1 <0>        -0.4479
      4 C3         -0.2059   -0.8943   -1.3308 C.3       1 <0>         0.1062
      5 C4         -1.5651   -1.4864   -1.7545 C.3       1 <0>        -0.1524
      6 C5         -1.4358   -3.0190   -1.6196 C.3       1 <0>        -0.1170
      7 C6          0.0786   -3.3002   -1.7958 C.3       1 <0>        -0.0702
      8 H1          0.3629   -4.2229   -1.2456 H         1 <0>         0.0799
      9 C7          0.7396   -2.0808   -1.1469 C.3       1 <0>        -0.0237
     10 C8          2.1620   -1.8333   -1.5839 C.3       1 <0>        -0.0934
     11 C9          2.3344   -1.9418   -3.0978 C.3       1 <0>        -0.1127
     12 C10         1.8878   -3.3429   -3.5301 C.3       1 <0>        -0.0642
     13 H2          2.4172   -4.0866   -2.9257 H         1 <0>         0.0700
     14 C11         0.3882   -3.4717   -3.2782 C.3       1 <0>        -0.0654
     15 H3          0.0751   -4.4928   -3.5566 H         1 <0>         0.0653
     16 C12        -0.4073   -2.4947   -4.1361 C.3       1 <0>        -0.1217
     17 C13        -0.1475   -2.7757   -5.6239 C.3       1 <0>        -0.0894
     18 C14         1.3528   -2.6918   -5.8480 C.2       1 <0>        -0.0560
     19 C15         1.8101   -1.8560   -6.7610 C.2       1 <0>        -0.1368
     20 C16         3.2557   -1.7286   -7.0045 C.2       1 <0>         0.1949
     21 C17         4.1135   -2.4529   -6.2978 C.2       1 <0>        -0.2427
     22 C18         3.7127   -3.4198   -5.2422 C.3       1 <0>        -0.0544
     23 C19         2.2315   -3.5591   -5.0030 C.3       1 <0>        -0.0137
     24 C20         1.8927   -5.0127   -5.3436 C.3       1 <0>        -0.1473
     25 N1          3.7245   -0.8439   -7.9775 N.pl3     1 <0>        -0.6252
     26 O2          5.1156   -0.7214   -8.2118 O.3       1 <0>        -0.1252
     27 C21         5.4524    0.2188   -9.2338 C.3       1 <0>         0.0224
     28 C22         6.9496    0.2677   -9.3979 C.2       1 <0>         0.5329
     29 O3          7.6585   -0.4337   -8.7076 O.2       1 <0>        -0.5053
     30 N2          7.5009    1.0907  -10.3117 N.am      1 <0>        -0.7066
     31 C23         8.9564    1.1382  -10.4712 C.3       1 <0>         0.2071
     32 H4          9.3724    0.1439  -10.3086 H         1 <0>         0.1382
     33 C24         9.2942    1.6022  -11.8647 C.ar      1 <0>        -0.1030
     34 C25         8.5619    2.6171  -12.4517 C.ar      1 <0>        -0.1099
     35 C26         8.8717    3.0427  -13.7299 C.ar      1 <0>        -0.1145
     36 C27         9.9141    2.4538  -14.4209 C.ar      1 <0>        -0.1062
     37 C28        10.6470    1.4395  -13.8335 C.ar      1 <0>        -0.1138
     38 C29        10.3399    1.0168  -12.5536 C.ar      1 <0>        -0.0869
     39 C30         9.5408    2.0977   -9.4668 C.2       1 <0>         0.4535
     40 O4          8.8159    2.6819   -8.6967 O.2       1 <0>        -0.4916
     41 O5         10.8667    2.3033   -9.4277 O.3       1 <0>        -0.3459
     42 C31        11.3515    3.2261   -8.4503 C.3       1 <0>         0.0332
     43 C32         0.8017   -2.3639    0.3751 C.3       1 <0>        -0.1717
     44 O6          0.2785    0.0174   -2.3141 O.3       1 <0>        -0.5300
     45 H5          1.4315    0.5146    0.9078 H         1 <0>         0.0962
     46 H6          0.9473    1.4275   -0.5415 H         1 <0>         0.0937
     47 H7          0.0740    1.6629    0.9915 H         1 <0>         0.0832
     48 H8         -2.3496   -1.1227   -1.0859 H         1 <0>         0.0749
     49 H9         -1.8009   -1.2052   -2.7779 H         1 <0>         0.0866
     50 H10        -1.7790   -3.3419   -0.6328 H         1 <0>         0.0665
     51 H11        -2.0203   -3.5235   -2.3900 H         1 <0>         0.0736
     52 H12         2.4678   -0.8357   -1.2631 H         1 <0>         0.0644
     53 H13         2.8137   -2.5650   -1.1012 H         1 <0>         0.0590
     54 H14         1.7400   -1.1870   -3.6046 H         1 <0>         0.0847
     55 H15         3.3873   -1.7970   -3.3502 H         1 <0>         0.0616
     56 H16        -1.4761   -2.6246   -3.9495 H         1 <0>         0.0646
     57 H17        -0.1207   -1.4709   -3.9169 H         1 <0>         0.0903
     58 H18        -0.5200   -3.7610   -5.8855 H         1 <0>         0.0747
     59 H19        -0.6500   -2.0187   -6.2272 H         1 <0>         0.0680
     60 H20         1.1174   -1.2571   -7.3347 H         1 <0>         0.1152
     61 H21         5.1672   -2.3316   -6.5023 H         1 <0>         0.1112
     62 H22         4.0947   -4.4038   -5.5275 H         1 <0>         0.0654
     63 H23         4.1915   -3.1372   -4.3090 H         1 <0>         0.0704
     64 H24         0.8312   -5.1888   -5.1696 H         1 <0>         0.0571
     65 H25         2.1258   -5.2042   -6.3910 H         1 <0>         0.0553
     66 H26         2.4799   -5.6801   -4.7128 H         1 <0>         0.0582
     67 H27         3.0973   -0.3132   -8.4931 H         1 <0>         0.4058
     68 H28         4.9936   -0.0867  -10.1741 H         1 <0>         0.0932
     69 H29         5.0851    1.2063   -8.9543 H         1 <0>         0.0939
     70 H30         6.9340    1.6517  -10.8638 H         1 <0>         0.4096
     71 H31         7.7475    3.0772  -11.9119 H         1 <0>         0.1220
     72 H32         8.2991    3.8351  -14.1888 H         1 <0>         0.1283
     73 H33        10.1557    2.7859  -15.4197 H         1 <0>         0.1276
     74 H34        11.4612    0.9792  -14.3734 H         1 <0>         0.1304
     75 H35        10.9149    0.2270  -12.0933 H         1 <0>         0.1318
     76 H36        12.4364    3.2993   -8.5263 H         1 <0>         0.1055
     77 H37        10.9082    4.2065   -8.6248 H         1 <0>         0.0610
     78 H38        11.0798    2.8766   -7.4542 H         1 <0>         0.0625
     79 H39        -0.2091   -2.4927    0.7622 H         1 <0>         0.0669
     80 H40         1.3772   -3.2724    0.5525 H         1 <0>         0.0670
     81 H41         1.2805   -1.5257    0.8813 H         1 <0>         0.0561
     82 H42        -0.3002    0.7773   -2.4649 H         1 <0>         0.3758
@<TRIPOS>BOND
     1    1    2 1
     2    1   45 1
     3    1   46 1
     4    1   47 1
     5    2    3 2
     6    2    4 1
     7    4    9 1
     8    4    5 1
     9    4   44 1
    10    5    6 1
    11    5   48 1
    12    5   49 1
    13    6    7 1
    14    6   50 1
    15    6   51 1
    16    7    8 1
    17    7   14 1
    18    7    9 1
    19    9   10 1
    20    9   43 1
    21   10   11 1
    22   10   52 1
    23   10   53 1
    24   11   12 1
    25   11   54 1
    26   11   55 1
    27   12   13 1
    28   12   23 1
    29   12   14 1
    30   14   15 1
    31   14   16 1
    32   16   17 1
    33   16   56 1
    34   16   57 1
    35   17   18 1
    36   17   58 1
    37   17   59 1
    38   18   23 1
    39   18   19 2
    40   19   20 1
    41   19   60 1
    42   20   21 2
    43   20   25 1
    44   21   22 1
    45   21   61 1
    46   22   23 1
    47   22   62 1
    48   22   63 1
    49   23   24 1
    50   24   64 1
    51   24   65 1
    52   24   66 1
    53   25   26 1
    54   25   67 1
    55   26   27 1
    56   27   28 1
    57   27   68 1
    58   27   69 1
    59   28   29 2
    60   28   30 am
    61   30   31 1
    62   30   70 1
    63   31   32 1
    64   31   33 1
    65   31   39 1
    66   33   38 ar
    67   33   34 ar
    68   34   35 ar
    69   34   71 1
    70   35   36 ar
    71   35   72 1
    72   36   37 ar
    73   36   73 1
    74   37   38 ar
    75   37   74 1
    76   38   75 1
    77   39   40 2
    78   39   41 1
    79   41   42 1
    80   42   76 1
    81   42   77 1
    82   42   78 1
    83   43   79 1
    84   43   80 1
    85   43   81 1
    86   44   82 1
@<TRIPOS>MOLECULE
ZINC06093385
   51    54     0     0     0
SMALL
USER_CHARGES
1-(3-chlorophenyl)-3-[[5-[4-(pyrimidin-2-ylsulfamoyl)phenyl]-2-furyl]methyleneamino]thiourea
@<TRIPOS>ATOM
      1 C1         -8.9114    3.0721    1.4268 C.ar      1 <0>        -0.1019
      2 C2         -7.5497    3.2731    1.3103 C.ar      1 <0>        -0.1133
      3 C3         -7.0378    3.9250    0.1960 C.ar      1 <0>         0.1247
      4 C4         -7.8963    4.3630   -0.8041 C.ar      1 <0>        -0.0633
      5 C5         -9.2572    4.1540   -0.6847 C.ar      1 <0>        -0.0290
      6 C6         -9.7641    3.5089    0.4302 C.ar      1 <0>        -0.1005
      7 Cl1       -10.3316    4.7002   -1.9341 Cl        1 <0>        -0.0597
      8 N1         -5.6601    4.1350    0.0784 N.pl3     1 <0>        -0.6094
      9 C7         -5.1925    5.3377   -0.3106 C.2       1 <0>         0.5821
     10 S1         -6.2852    6.5748   -0.7651 S.2       1 <0>        -0.5745
     11 N2         -3.8647    5.5666   -0.3417 N.pl3     1 <0>        -0.5308
     12 N3         -2.9705    4.5542    0.0302 N.2       1 <0>        -0.2765
     13 C8         -1.6881    4.7752    0.0001 C.2       1 <0>         0.1836
     14 C9         -0.7533    3.7170    0.3889 C.2       1 <0>         0.0121
     15 C10         0.6203    3.8166    0.4029 C.2       1 <0>        -0.1380
     16 C11         1.1112    2.5779    0.8372 C.2       1 <0>        -0.1783
     17 C12         0.0316    1.7785    1.0691 C.2       1 <0>         0.0449
     18 O1         -1.0875    2.4737    0.7900 O.3       1 <0>        -0.1475
     19 C13         0.0812    0.3808    1.5416 C.ar      1 <0>         0.0365
     20 C14         1.3115   -0.2343    1.7852 C.ar      1 <0>        -0.1240
     21 C15         1.3502   -1.5389    2.2312 C.ar      1 <0>         0.0224
     22 C16         0.1744   -2.2417    2.4272 C.ar      1 <0>        -0.6637
     23 C17        -1.0478   -1.6404    2.1829 C.ar      1 <0>        -0.0154
     24 C18        -1.1017   -0.3347    1.7417 C.ar      1 <0>        -0.1268
     25 S2          0.2336   -3.9099    2.9912 S.o2      1 <0>         2.6987
     26 O2          1.4734   -4.0661    3.6678 O.2       1 <0>        -0.9279
     27 O3         -1.0146   -4.1713    3.6181 O.2       1 <0>        -0.9402
     28 N4          0.3013   -4.8783    1.6495 N.pl3     1 <0>        -1.0152
     29 C19         1.4033   -4.8267    0.8138 C.ar      1 <0>         0.5617
     30 N5          2.2436   -3.8072    0.9137 N.ar      1 <0>        -0.5613
     31 C20         3.3093   -3.7305    0.1339 C.ar      1 <0>         0.1942
     32 C21         3.5348   -4.7269   -0.8028 C.ar      1 <0>        -0.2569
     33 C22         2.6328   -5.7761   -0.8844 C.ar      1 <0>         0.1884
     34 N6          1.5900   -5.7952   -0.0709 N.ar      1 <0>        -0.5379
     35 H1         -9.3098    2.5688    2.2953 H         1 <0>         0.1399
     36 H2         -6.8839    2.9273    2.0872 H         1 <0>         0.1317
     37 H3         -7.5009    4.8667   -1.6739 H         1 <0>         0.1584
     38 H4        -10.8279    3.3461    0.5215 H         1 <0>         0.1378
     39 H5         -5.0411    3.4150    0.2767 H         1 <0>         0.4215
     40 H6         -3.5281    6.4322   -0.6217 H         1 <0>         0.4226
     41 H7         -1.3134    5.7390   -0.3116 H         1 <0>         0.1615
     42 H8          1.2062    4.6824    0.1319 H         1 <0>         0.1678
     43 H9          2.1491    2.3074    0.9638 H         1 <0>         0.1645
     44 H10         2.2301    0.3116    1.6284 H         1 <0>         0.1409
     45 H11         2.3005   -2.0144    2.4239 H         1 <0>         0.1581
     46 H12        -1.9616   -2.1947    2.3384 H         1 <0>         0.1455
     47 H13        -2.0562    0.1333    1.5511 H         1 <0>         0.1383
     48 H14        -0.4314   -5.4816    1.4494 H         1 <0>         0.4420
     49 H15         3.9929   -2.8991    0.2228 H         1 <0>         0.1794
     50 H16         4.3949   -4.6869   -1.4547 H         1 <0>         0.1556
     51 H17         2.7798   -6.5686   -1.6032 H         1 <0>         0.1773
@<TRIPOS>BOND
     1    1    6 ar
     2    1    2 ar
     3    1   35 1
     4    2    3 ar
     5    2   36 1
     6    3    4 ar
     7    3    8 1
     8    4    5 ar
     9    4   37 1
    10    5    6 ar
    11    5    7 1
    12    6   38 1
    13    8    9 1
    14    8   39 1
    15    9   10 2
    16    9   11 1
    17   11   12 1
    18   11   40 1
    19   12   13 2
    20   13   14 1
    21   13   41 1
    22   14   18 1
    23   14   15 2
    24   15   16 1
    25   15   42 1
    26   16   17 2
    27   16   43 1
    28   17   18 1
    29   17   19 1
    30   19   24 ar
    31   19   20 ar
    32   20   21 ar
    33   20   44 1
    34   21   22 ar
    35   21   45 1
    36   22   23 ar
    37   22   25 1
    38   23   24 ar
    39   23   46 1
    40   24   47 1
    41   25   26 2
    42   25   27 2
    43   25   28 1
    44   28   29 1
    45   28   48 1
    46   29   34 ar
    47   29   30 ar
    48   30   31 ar
    49   31   32 ar
    50   31   49 1
    51   32   33 ar
    52   32   50 1
    53   33   34 ar
    54   33   51 1
@<TRIPOS>MOLECULE
ZINC20347586
   68    71     0     0     0
SMALL
USER_CHARGES
(4S)-5-cyano-N-(2,6-dimethylphenyl)-6-[2-[(2-ethylphenyl)amino]-2-oxo-ethyl]sulfanyl-4-(2-furyl)-2-methyl-1,4-dihydropyridine-3-carboxamide
@<TRIPOS>ATOM
      1 C1         -6.1630   13.6781    2.4424 C.3       1 <0>        -0.1520
      2 C2         -6.7650   12.8697    3.5935 C.3       1 <0>        -0.0875
      3 C3         -8.1850   12.4949    3.2554 C.ar      1 <0>        -0.1096
      4 C4         -9.2314   13.2812    3.6966 C.ar      1 <0>        -0.0993
      5 C5        -10.5344   12.9385    3.3860 C.ar      1 <0>        -0.1309
      6 C6        -10.7945   11.8078    2.6333 C.ar      1 <0>        -0.1039
      7 C7         -9.7525   11.0204    2.1847 C.ar      1 <0>        -0.1310
      8 C8         -8.4427   11.3590    2.4995 C.ar      1 <0>         0.1469
      9 N1         -7.3850   10.5604    2.0510 N.am      1 <0>        -0.6719
     10 C9         -7.5856    9.2497    1.8093 C.2       1 <0>         0.5354
     11 O1         -8.7006    8.7806    1.8973 O.2       1 <0>        -0.4963
     12 C10        -6.4246    8.3672    1.4297 C.3       1 <0>        -0.1862
     13 S1         -7.0121    6.6746    1.1725 S.3       1 <0>         0.0497
     14 C11        -5.4943    5.8843    0.7525 C.2       1 <0>         0.1700
     15 C12        -5.4814    4.5538    0.4709 C.2       1 <0>        -0.1217
     16 C13        -4.2080    3.8479    0.1001 C.3       1 <0>         0.1261
     17 H1         -4.1592    2.8984    0.6533 H         1 <0>         0.1109
     18 C14        -3.0110    4.6767    0.4683 C.2       1 <0>        -0.2754
     19 C15        -3.1177    5.9849    0.7512 C.2       1 <0>         0.2445
     20 N2         -4.3299    6.6182    0.7123 N.pl3     1 <0>        -0.6463
     21 C16        -1.8823    6.7692    1.1114 C.3       1 <0>        -0.1153
     22 C17        -1.7375    4.0612    0.5243 C.2       1 <0>         0.5631
     23 O2         -0.7708    4.6957    0.9063 O.2       1 <0>        -0.5150
     24 N3         -1.5948    2.7730    0.1547 N.am      1 <0>        -0.6734
     25 C18        -0.3257    2.1858    0.1414 C.ar      1 <0>         0.1432
     26 C19        -0.1342    0.9293    0.7013 C.ar      1 <0>        -0.1003
     27 C20         1.1217    0.3549    0.6920 C.ar      1 <0>        -0.1147
     28 C21         2.1879    1.0292    0.1254 C.ar      1 <0>        -0.1232
     29 C22         2.0005    2.2802   -0.4333 C.ar      1 <0>        -0.1155
     30 C23         0.7473    2.8604   -0.4268 C.ar      1 <0>        -0.0667
     31 C24         0.5441    4.2237   -1.0360 C.3       1 <0>        -0.1691
     32 C25        -1.2954    0.1940    1.3194 C.3       1 <0>        -0.1148
     33 C26        -4.1974    3.5944   -1.3854 C.2       1 <0>        -0.0059
     34 C27        -4.1506    2.3872   -1.9770 C.2       1 <0>        -0.2099
     35 C28        -4.1585    2.6144   -3.3724 C.2       1 <0>        -0.2069
     36 C29        -4.2096    3.9468   -3.5501 C.2       1 <0>        -0.0390
     37 O3         -4.2388    4.5350   -2.3430 O.3       1 <0>        -0.1625
     38 C30        -6.7046    3.8115    0.5294 C.1       1 <0>         0.2529
     39 N4         -7.6749    3.2227    0.5757 N.1       1 <0>        -0.4008
     40 H2         -5.1265   13.9516    2.6892 H         1 <0>         0.0632
     41 H3         -6.7560   14.5913    2.2863 H         1 <0>         0.0618
     42 H4         -6.1737   13.0725    1.5242 H         1 <0>         0.0514
     43 H5         -6.1720   11.9565    3.7496 H         1 <0>         0.0689
     44 H6         -6.7543   13.4753    4.5118 H         1 <0>         0.0793
     45 H7         -9.0316   14.1648    4.2846 H         1 <0>         0.1261
     46 H8        -11.3508   13.5553    3.7316 H         1 <0>         0.1239
     47 H9        -11.8134   11.5425    2.3927 H         1 <0>         0.1259
     48 H10        -9.9560   10.1400    1.5932 H         1 <0>         0.1502
     49 H11        -6.3897   11.0023    1.8956 H         1 <0>         0.4351
     50 H12        -5.9675    8.7416    0.5019 H         1 <0>         0.1280
     51 H13        -5.6772    8.3772    2.2367 H         1 <0>         0.1327
     52 H14        -4.3733    7.7155    0.6488 H         1 <0>         0.4413
     53 H15        -2.1572    7.8156    1.3099 H         1 <0>         0.0584
     54 H16        -1.1668    6.7300    0.2768 H         1 <0>         0.1014
     55 H17        -1.4211    6.3344    2.0104 H         1 <0>         0.1114
     56 H18        -2.4766    2.1834   -0.1365 H         1 <0>         0.4249
     57 H19         1.2713   -0.6221    1.1272 H         1 <0>         0.1232
     58 H20         3.1689    0.5776    0.1191 H         1 <0>         0.1215
     59 H21         2.8353    2.8042   -0.8750 H         1 <0>         0.1215
     60 H22         1.5010    4.5947   -1.4319 H         1 <0>         0.0515
     61 H23         0.1718    4.9169   -0.2674 H         1 <0>         0.1447
     62 H24        -0.1888    4.1545   -1.8534 H         1 <0>         0.0551
     63 H25        -0.9507   -0.7761    1.7068 H         1 <0>         0.0698
     64 H26        -2.0724    0.0298    0.5583 H         1 <0>         0.0648
     65 H27        -1.7106    0.7917    2.1443 H         1 <0>         0.0694
     66 H28        -4.1146    1.4284   -1.4812 H         1 <0>         0.1468
     67 H29        -4.1288    1.8625   -4.1471 H         1 <0>         0.1484
     68 H30        -4.2292    4.4568   -4.5019 H         1 <0>         0.2015
@<TRIPOS>BOND
     1    1    2 1
     2    1   40 1
     3    1   41 1
     4    1   42 1
     5    2    3 1
     6    2   43 1
     7    2   44 1
     8    3    8 ar
     9    3    4 ar
    10    4    5 ar
    11    4   45 1
    12    5    6 ar
    13    5   46 1
    14    6    7 ar
    15    6   47 1
    16    7    8 ar
    17    7   48 1
    18    8    9 1
    19    9   10 am
    20    9   49 1
    21   10   11 2
    22   10   12 1
    23   12   13 1
    24   12   50 1
    25   12   51 1
    26   13   14 1
    27   14   20 1
    28   14   15 2
    29   15   16 1
    30   15   38 1
    31   16   17 1
    32   16   18 1
    33   16   33 1
    34   18   19 2
    35   18   22 1
    36   19   20 1
    37   19   21 1
    38   20   52 1
    39   21   53 1
    40   21   54 1
    41   21   55 1
    42   22   23 2
    43   22   24 am
    44   24   25 1
    45   24   56 1
    46   25   30 ar
    47   25   26 ar
    48   26   27 ar
    49   26   32 1
    50   27   28 ar
    51   27   57 1
    52   28   29 ar
    53   28   58 1
    54   29   30 ar
    55   29   59 1
    56   30   31 1
    57   31   60 1
    58   31   61 1
    59   31   62 1
    60   32   63 1
    61   32   64 1
    62   32   65 1
    63   33   37 1
    64   33   34 2
    65   34   35 1
    66   34   66 1
    67   35   36 2
    68   35   67 1
    69   36   37 1
    70   36   68 1
    71   38   39 3
@<TRIPOS>MOLECULE
ZINC36500729
   70    73     0     0     0
SMALL
USER_CHARGES

@<TRIPOS>ATOM
      1 C1          3.0552    2.0779    1.2111 C.3       1 <0>        -0.1625
      2 C2          1.9156    1.0612    1.1184 C.3       1 <0>         0.1735
      3 C3          2.2667   -0.1754    1.9481 C.3       1 <0>        -0.1685
      4 C4          0.6279    1.6879    1.6568 C.3       1 <0>        -0.1558
      5 N1          1.7214    0.6717   -0.2805 N.am      1 <0>        -0.7194
      6 C5          2.7287    0.0951   -0.9655 C.2       1 <0>         0.5010
      7 O1          3.7960   -0.1012   -0.4240 O.2       1 <0>        -0.4978
      8 C6          2.5289   -0.3056   -2.4045 C.3       1 <0>         0.1376
      9 H1          2.2788    0.5754   -2.9956 H         1 <0>         0.1221
     10 C7          1.3894   -1.3223   -2.4973 C.3       1 <0>        -0.0102
     11 C8          0.0916   -0.6587   -2.1144 C.ar      1 <0>        -0.0866
     12 C9         -0.4108    0.3730   -2.8853 C.ar      1 <0>        -0.1131
     13 C10        -1.6012    0.9817   -2.5341 C.ar      1 <0>        -0.1149
     14 C11        -2.2894    0.5585   -1.4124 C.ar      1 <0>        -0.1133
     15 C12        -1.7874   -0.4738   -0.6421 C.ar      1 <0>        -0.1166
     16 C13        -0.5992   -1.0854   -0.9957 C.ar      1 <0>        -0.1019
     17 C14         1.2916   -1.8398   -3.9092 C.ar      1 <0>        -0.0739
     18 C15         1.0499   -3.1814   -4.1385 C.ar      1 <0>        -0.1154
     19 C16         0.9601   -3.6561   -5.4337 C.ar      1 <0>        -0.1151
     20 C17         1.1117   -2.7891   -6.4996 C.ar      1 <0>        -0.1175
     21 C18         1.3525   -1.4473   -6.2704 C.ar      1 <0>        -0.1035
     22 C19         1.4379   -0.9719   -4.9752 C.ar      1 <0>        -0.1039
     23 N2          3.7619   -0.9056   -2.9200 N.am      1 <0>        -0.5731
     24 C20         4.1117   -2.2826   -2.5624 C.3       1 <0>         0.1777
     25 C21         4.5426   -2.3328   -1.1192 C.2       1 <0>        -0.0087
     26 C22         3.7511   -2.6251   -0.0716 C.2       1 <0>        -0.1811
     27 C23         4.5612   -2.5576    1.0852 C.2       1 <0>        -0.2012
     28 C24         5.7992   -2.2280    0.6753 C.2       1 <0>        -0.0292
     29 O2          5.7833   -2.0988   -0.6614 O.3       1 <0>        -0.1693
     30 C25         4.5746   -0.1909   -3.7233 C.2       1 <0>         0.5859
     31 O3          4.3442    0.9849   -3.9302 O.2       1 <0>        -0.5232
     32 C26         5.7437   -0.8353   -4.3518 C.ar      1 <0>        -0.1447
     33 C27         6.7119   -1.4597   -3.5598 C.ar      1 <0>        -0.0855
     34 C28         7.8017   -2.0606   -4.1500 C.ar      1 <0>        -0.1140
     35 C29         7.9456   -2.0506   -5.5279 C.ar      1 <0>        -0.1094
     36 C30         6.9956   -1.4361   -6.3256 C.ar      1 <0>         0.0773
     37 C31         5.8860   -0.8297   -5.7443 C.ar      1 <0>         0.1342
     38 O4          4.9492   -0.2313   -6.5233 O.3       1 <0>        -0.4829
     39 O5          7.1438   -1.4299   -7.6775 O.3       1 <0>        -0.4879
     40 H2          3.9726    1.6315    0.8276 H         1 <0>         0.0777
     41 H3          2.8051    2.9589    0.6200 H         1 <0>         0.0509
     42 H4          3.1997    2.3677    2.2519 H         1 <0>         0.0598
     43 H5          2.4112    0.1144    2.9889 H         1 <0>         0.0565
     44 H6          1.4548   -0.8998    1.8820 H         1 <0>         0.0495
     45 H7          3.1841   -0.6219    1.5645 H         1 <0>         0.0930
     46 H8          0.3778    2.5689    1.0657 H         1 <0>         0.0591
     47 H9         -0.1839    0.9635    1.5907 H         1 <0>         0.0614
     48 H10         0.7724    1.9777    2.6976 H         1 <0>         0.0719
     49 H11         0.8678    0.8287   -0.7136 H         1 <0>         0.3985
     50 H12         1.5869   -2.1524   -1.8190 H         1 <0>         0.0955
     51 H13         0.1268    0.7036   -3.7616 H         1 <0>         0.1250
     52 H14        -1.9934    1.7882   -3.1359 H         1 <0>         0.1256
     53 H15        -3.2190    1.0346   -1.1377 H         1 <0>         0.1243
     54 H16        -2.3248   -0.8042    0.2345 H         1 <0>         0.1248
     55 H17        -0.2088   -1.8943   -0.3960 H         1 <0>         0.1221
     56 H18         0.9315   -3.8588   -3.3057 H         1 <0>         0.1200
     57 H19         0.7720   -4.7044   -5.6128 H         1 <0>         0.1220
     58 H20         1.0423   -3.1600   -7.5115 H         1 <0>         0.1205
     59 H21         1.4712   -0.7700   -7.1032 H         1 <0>         0.1218
     60 H22         1.6224    0.0771   -4.7960 H         1 <0>         0.1177
     61 H23         3.2439   -2.9266   -2.7051 H         1 <0>         0.1062
     62 H24         4.9279   -2.6268   -3.1975 H         1 <0>         0.1066
     63 H25         2.6987   -2.8648   -0.1072 H         1 <0>         0.1313
     64 H26         4.2463   -2.7361    2.1027 H         1 <0>         0.1390
     65 H27         6.6608   -2.0941    1.3126 H         1 <0>         0.1941
     66 H28         6.6055   -1.4705   -2.4851 H         1 <0>         0.1458
     67 H29         8.5482   -2.5418   -3.5355 H         1 <0>         0.1379
     68 H30         8.8034   -2.5244   -5.9820 H         1 <0>         0.1388
     69 H31         5.1234    0.7032   -6.7004 H         1 <0>         0.4001
     70 H32         6.7392   -2.1880   -8.1210 H         1 <0>         0.3937
@<TRIPOS>BOND
     1    1    2 1
     2    1   40 1
     3    1   41 1
     4    1   42 1
     5    2    3 1
     6    2    4 1
     7    2    5 1
     8    3   43 1
     9    3   44 1
    10    3   45 1
    11    4   46 1
    12    4   47 1
    13    4   48 1
    14    5    6 am
    15    5   49 1
    16    6    7 2
    17    6    8 1
    18    8    9 1
    19    8   10 1
    20    8   23 1
    21   10   11 1
    22   10   17 1
    23   10   50 1
    24   11   16 ar
    25   11   12 ar
    26   12   13 ar
    27   12   51 1
    28   13   14 ar
    29   13   52 1
    30   14   15 ar
    31   14   53 1
    32   15   16 ar
    33   15   54 1
    34   16   55 1
    35   17   22 ar
    36   17   18 ar
    37   18   19 ar
    38   18   56 1
    39   19   20 ar
    40   19   57 1
    41   20   21 ar
    42   20   58 1
    43   21   22 ar
    44   21   59 1
    45   22   60 1
    46   23   24 1
    47   23   30 am
    48   24   25 1
    49   24   61 1
    50   24   62 1
    51   25   29 1
    52   25   26 2
    53   26   27 1
    54   26   63 1
    55   27   28 2
    56   27   64 1
    57   28   29 1
    58   28   65 1
    59   30   31 2
    60   30   32 1
    61   32   37 ar
    62   32   33 ar
    63   33   34 ar
    64   33   66 1
    65   34   35 ar
    66   34   67 1
    67   35   36 ar
    68   35   68 1
    69   36   37 ar
    70   36   39 1
    71   37   38 1
    72   38   69 1
    73   39   70 1
@<TRIPOS>MOLECULE
ZINC39710765
   76    80     0     0     0
SMALL
NO_CHARGES

@<TRIPOS>ATOM
      1 C1         -0.1802   -3.8776   -6.2947 C.3       1 <0>        -0.1616
      2 C2         -0.4525   -3.6572   -4.8054 C.3       1 <0>        -0.1151
      3 C3          0.7193   -2.8982   -4.1795 C.3       1 <0>         0.0485
      4 C4          2.0216   -3.6520   -4.4568 C.3       1 <0>        -0.3024
      5 C5          0.8020   -1.4966   -4.7873 C.3       1 <0>        -0.3035
      6 N1          0.5147   -2.7916   -2.7287 N.3       1 <0>        -0.2646
      7 C6          1.1816   -1.5891   -2.1867 C.3       1 <0>         0.1000
      8 H1          1.9056   -1.8681   -1.4212 H         1 <0>         0.2315
      9 N2          0.0926   -0.7976   -1.5984 N.2       1 <0>        -0.2194
     10 N3         -0.9707   -1.4005   -1.7596 N.2       1 <0>         0.0829
     11 N4         -0.8109   -2.6118   -2.4316 N.pl3     1 <0>        -0.5188
     12 C7          1.8674   -0.8073   -3.3090 C.3       1 <0>        -0.1096
     13 H2          1.1215   -0.4848   -4.0354 H         1 <0>         0.2442
     14 C8          2.5700    0.4182   -2.7212 C.3       1 <0>        -0.0131
     15 H3          1.8463    0.9504   -2.1040 H         1 <0>         0.1067
     16 C9          2.9589    1.3273   -3.8706 C.2       1 <0>        -0.5001
     17 C10         4.2801    1.6359   -4.0039 C.ar      1 <0>         0.0850
     18 C11         4.7424    2.5062   -5.0857 C.ar      1 <0>        -0.2247
     19 C12         6.0680    2.7860   -5.1798 C.ar      1 <0>        -0.0574
     20 C13         6.9875    2.2618   -4.2710 C.ar      1 <0>        -0.2251
     21 C14         6.6226    1.4482   -3.2460 C.ar      1 <0>        -0.0252
     22 C15         5.2731    1.0970   -3.0584 C.ar      1 <0>        -0.1167
     23 N5          4.9265    0.2988   -2.0488 N.am      1 <0>        -0.5797
     24 C16         3.6789   -0.0718   -1.8176 C.2       1 <0>         0.4736
     25 O1          3.4240   -0.8036   -0.8799 O.2       1 <0>        -0.5603
     26 C17         7.6712    0.9181   -2.3023 C.3       1 <0>        -0.1254
     27 C18         8.4443    2.6118   -4.4330 C.3       1 <0>        -0.0936
     28 N6          2.8564   -1.6678   -3.9717 N.4       1 <0>        -0.3978
     29 C19         3.7261   -0.8471   -4.8249 C.3       1 <0>        -0.0043
     30 C20         4.5757   -1.7446   -5.6872 C.ar      1 <0>        -0.1329
     31 C21         5.8081   -2.1753   -5.2326 C.ar      1 <0>        -0.0965
     32 C22         6.5874   -2.9987   -6.0236 C.ar      1 <0>        -0.1119
     33 C23         6.1341   -3.3917   -7.2690 C.ar      1 <0>        -0.0999
     34 C24         4.9014   -2.9617   -7.7232 C.ar      1 <0>        -0.1149
     35 C25         4.1202   -2.1419   -6.9304 C.ar      1 <0>        -0.1082
     36 C26         3.6695   -2.3509   -2.9568 C.3       1 <0>        -0.0244
     37 C27         2.8574   -3.4474   -2.3171 C.2       1 <0>        -0.0869
     38 C28         2.7302   -4.7041   -2.7796 C.2       1 <0>        -0.1388
     39 C29         1.8848   -5.3892   -1.8769 C.2       1 <0>        -0.2308
     40 C30         1.5460   -4.5101   -0.9167 C.2       1 <0>         0.0195
     41 O2          2.1427   -3.3373   -1.1854 O.3       1 <0>        -0.1309
     42 H4         -0.1542   -2.9150   -6.8056 H         1 <0>         0.0601
     43 H5          0.7789   -4.3805   -6.4182 H         1 <0>         0.0627
     44 H6         -0.9713   -4.4941   -6.7214 H         1 <0>         0.0690
     45 H7         -1.3671   -3.0766   -4.6852 H         1 <0>         0.0751
     46 H8         -0.5667   -4.6216   -4.3103 H         1 <0>         0.0844
     47 H9          2.3017   -3.5208   -5.5020 H         1 <0>         0.0873
     48 H10         2.8119   -3.2596   -3.8169 H         1 <0>         0.1504
     49 H11         1.8788   -4.7125   -4.2492 H         1 <0>         0.1483
     50 H12         0.1161   -0.8318   -4.2621 H         1 <0>         0.0992
     51 H13         1.8197   -1.1182   -4.6910 H         1 <0>         0.1389
     52 H14         0.5290   -1.5410   -5.8416 H         1 <0>         0.0891
     53 H15        -1.5252   -3.2293   -2.6539 H         1 <0>         0.4521
     54 H16         2.2194    1.7143   -4.5560 H         1 <0>         0.1105
     55 H17         4.0418    2.9185   -5.7968 H         1 <0>         0.1045
     56 H18         6.4177    3.4275   -5.9752 H         1 <0>         0.0937
     57 H19         7.7316    1.5640   -1.4263 H         1 <0>         0.0652
     58 H20         7.4032   -0.0916   -1.9914 H         1 <0>         0.0485
     59 H21         8.6373    0.8986   -2.8066 H         1 <0>         0.0733
     60 H22         8.6862    3.4636   -3.7974 H         1 <0>         0.0461
     61 H23         9.0573    1.7578   -4.1450 H         1 <0>         0.0514
     62 H24         8.6430    2.8672   -5.4739 H         1 <0>         0.0464
     63 H25         3.1132   -0.2072   -5.4598 H         1 <0>         0.1435
     64 H26         4.3699   -0.2287   -4.1993 H         1 <0>         0.1846
     65 H27         6.1622   -1.8683   -4.2596 H         1 <0>         0.1283
     66 H28         7.5505   -3.3346   -5.6688 H         1 <0>         0.1314
     67 H29         6.7433   -4.0344   -7.8873 H         1 <0>         0.1296
     68 H30         4.5474   -3.2685   -8.6963 H         1 <0>         0.1298
     69 H31         3.1554   -1.8090   -7.2837 H         1 <0>         0.1246
     70 H32         4.5531   -2.7810   -3.4283 H         1 <0>         0.1410
     71 H33         3.9766   -1.6345   -2.1948 H         1 <0>         0.1983
     72 H34         3.1859   -5.1114   -3.6700 H         1 <0>         0.1509
     73 H35         1.5709   -6.4203   -1.9453 H         1 <0>         0.1495
     74 H36         0.9059   -4.7141   -0.0711 H         1 <0>         0.1980
     75 H37         5.6227   -0.0263   -1.4567 H         1 <0>         0.3969
     76 H38         2.3798   -2.3535   -4.5381 H         1 <0>         0.4395
@<TRIPOS>BOND
     1    1    2 1
     2    1   42 1
     3    1   43 1
     4    1   44 1
     5    2    3 1
     6    2   45 1
     7    2   46 1
     8    3    4 1
     9    3    5 1
    10    3    6 1
    11    4   47 1
    12    4   48 1
    13    4   49 1
    14    5   50 1
    15    5   51 1
    16    5   52 1
    17    6   11 1
    18    6    7 1
    19    7    8 1
    20    7    9 1
    21    7   12 1
    22    9   10 2
    23   10   11 1
    24   11   53 1
    25   12   13 1
    26   12   14 1
    27   12   28 1
    28   14   15 1
    29   14   24 1
    30   14   16 1
    31   16   17 2
    32   16   54 1
    33   17   22 ar
    34   17   18 ar
    35   18   19 ar
    36   18   55 1
    37   19   20 ar
    38   19   56 1
    39   20   21 ar
    40   20   27 1
    41   21   22 ar
    42   21   26 1
    43   22   23 2
    44   23   24 am
    45   23   75 1
    46   24   25 2
    47   26   57 1
    48   26   58 1
    49   26   59 1
    50   27   60 1
    51   27   61 1
    52   27   62 1
    53   28   29 1
    54   28   36 1
    55   28   76 1
    56   29   30 1
    57   29   63 1
    58   29   64 1
    59   30   35 ar
    60   30   31 ar
    61   31   32 ar
    62   31   65 1
    63   32   33 ar
    64   32   66 1
    65   33   34 ar
    66   33   67 1
    67   34   35 ar
    68   34   68 1
    69   35   69 1
    70   36   37 1
    71   36   70 1
    72   36   71 1
    73   37   41 1
    74   37   38 2
    75   38   39 1
    76   38   72 1
    77   39   40 2
    78   39   73 1
    79   40   41 1
    80   40   74 1
@<TRIPOS>MOLECULE
ZINC59014572
   49    51     0     0     0
SMALL
USER_CHARGES

@<TRIPOS>ATOM
      1 C1         -0.0187    1.5258    0.0104 C.3       1 <0>        -0.1537
      2 C2          0.0021   -0.0041    0.0020 C.3       1 <0>        -0.1183
      3 C3         -1.4333   -0.5336    0.0129 C.3       1 <0>        -0.1061
      4 C4         -1.4126   -2.0635    0.0045 C.3       1 <0>        -0.1129
      5 S1         -3.1144   -2.6914    0.0173 S.3       1 <0>         0.0471
      6 C5         -2.9226   -4.4429    0.0061 C.2       1 <0>         0.0177
      7 N1         -1.8211   -5.1792   -0.0025 N.2       1 <0>        -0.2578
      8 N2         -1.8617   -6.4398   -0.0099 N.2       1 <0>        -0.2670
      9 C6         -3.0055   -7.1046   -0.0096 C.2       1 <0>         0.2804
     10 S2         -4.1605   -5.7365    0.0110 S.3       1 <0>         0.0473
     11 N3         -3.2433   -8.4768   -0.0173 N.am      1 <0>        -0.6067
     12 C7         -2.2083   -9.3401   -0.0263 C.2       1 <0>         0.5325
     13 O1         -1.0697   -8.9218   -0.0278 O.2       1 <0>        -0.4452
     14 C8         -2.4656  -10.8249   -0.0347 C.3       1 <0>        -0.1601
     15 S3         -0.8837  -11.7126   -0.0458 S.3       1 <0>         0.1229
     16 C9         -1.3487  -13.4122   -0.0548 C.2       1 <0>         0.2154
     17 N4         -0.5039  -14.4488   -0.0589 N.2       1 <0>        -0.5134
     18 C10        -1.1852  -15.5753   -0.0653 C.2       1 <0>         0.5632
     19 N5         -2.4997  -15.2674   -0.0653 N.pl3     1 <0>        -0.5026
     20 N6         -2.5797  -13.8656   -0.0528 N.2       1 <0>        -0.3226
     21 N7         -0.6488  -16.8498   -0.0716 N.pl3     1 <0>        -0.5506
     22 N8          0.7412  -17.0248   -0.0711 N.2       1 <0>        -0.1678
     23 C11         1.2448  -18.2213   -0.0771 C.2       1 <0>         0.0855
     24 C12         2.7076  -18.4055   -0.0765 C.ar      1 <0>        -0.0407
     25 C13         3.2530  -19.6917   -0.0888 C.ar      1 <0>        -0.0667
     26 C14         4.6219  -19.8571   -0.0887 C.ar      1 <0>        -0.1120
     27 C15         5.4567  -18.7518   -0.0760 C.ar      1 <0>        -0.0106
     28 C16         4.9240  -17.4740   -0.0633 C.ar      1 <0>        -0.1089
     29 C17         3.5553  -17.2938   -0.0696 C.ar      1 <0>        -0.0053
     30 Cl1         2.8885  -15.6910   -0.0610 Cl        1 <0>         0.0060
     31 Cl2         7.1790  -18.9699   -0.0754 Cl        1 <0>        -0.0519
     32 H1          1.0039    1.9031    0.0027 H         1 <0>         0.0580
     33 H2         -0.5459    1.8868   -0.8726 H         1 <0>         0.0559
     34 H3         -0.5289    1.8773    0.9072 H         1 <0>         0.0558
     35 H4          0.5123   -0.3556   -0.8948 H         1 <0>         0.0671
     36 H5          0.5293   -0.3651    0.8851 H         1 <0>         0.0671
     37 H6         -1.9435   -0.1821    0.9097 H         1 <0>         0.0761
     38 H7         -1.9605   -0.1726   -0.8702 H         1 <0>         0.0761
     39 H8         -0.9024   -2.4150   -0.8923 H         1 <0>         0.1000
     40 H9         -0.8854   -2.4246    0.8875 H         1 <0>         0.1001
     41 H10        -4.1538   -8.8113   -0.0161 H         1 <0>         0.4323
     42 H11        -3.0307  -11.1007    0.8556 H         1 <0>         0.1320
     43 H12        -3.0370  -11.0896   -0.9243 H         1 <0>         0.1320
     44 H13        -1.2349  -17.6227   -0.0764 H         1 <0>         0.3988
     45 H14         0.5922  -19.0818   -0.0824 H         1 <0>         0.1307
     46 H15         2.6036  -20.5547   -0.0980 H         1 <0>         0.1476
     47 H16         5.0443  -20.8511   -0.0981 H         1 <0>         0.1454
     48 H17         5.5804  -16.6165   -0.0528 H         1 <0>         0.1486
     49 H18        -3.2423  -15.8914   -0.0692 H         1 <0>         0.4392
@<TRIPOS>BOND
     1    1    2 1
     2    1   32 1
     3    1   33 1
     4    1   34 1
     5    2    3 1
     6    2   35 1
     7    2   36 1
     8    3    4 1
     9    3   37 1
    10    3   38 1
    11    4    5 1
    12    4   39 1
    13    4   40 1
    14    5    6 1
    15    6   10 1
    16    6    7 2
    17    7    8 1
    18    8    9 2
    19    9   10 1
    20    9   11 1
    21   11   12 am
    22   11   41 1
    23   12   13 2
    24   12   14 1
    25   14   15 1
    26   14   42 1
    27   14   43 1
    28   15   16 1
    29   16   20 2
    30   16   17 1
    31   17   18 2
    32   18   19 1
    33   18   21 1
    34   19   20 1
    35   19   49 1
    36   21   22 1
    37   21   44 1
    38   22   23 2
    39   23   24 1
    40   23   45 1
    41   24   29 ar
    42   24   25 ar
    43   25   26 ar
    44   25   46 1
    45   26   27 ar
    46   26   47 1
    47   27   28 ar
    48   27   31 1
    49   28   29 ar
    50   28   48 1
    51   29   30 1
@<TRIPOS>MOLECULE
ZINC09849746
   60    63     0     0     0
SMALL
USER_CHARGES
N-(1-adamantyl)-4-[N'-[3,5-bis(trifluoromethyl)benzoyl]hydrazino]-4-oxo-butanamide
@<TRIPOS>ATOM
      1 C1          2.3966    0.0113   -0.0209 C.ar      1 <0>         0.0256
      2 C2          2.3848    1.4070   -0.0132 C.ar      1 <0>        -0.1265
      3 C3          1.1667    2.0884    0.0021 C.ar      1 <0>        -0.0069
      4 C4         -0.0167    1.3794    0.0096 C.ar      1 <0>        -0.1864
      5 C5          0.0021   -0.0041    0.0020 C.ar      1 <0>         0.0084
      6 C6          1.2061   -0.6856   -0.0132 C.ar      1 <0>        -0.1876
      7 C7          1.2169   -2.1926   -0.0219 C.3       1 <0>         0.5145
      8 F1          1.2078   -2.6514   -1.3435 F         1 <0>        -0.1680
      9 F2          2.3686   -2.6544    0.6242 F         1 <0>        -0.1682
     10 F3          0.0842   -2.6709    0.6456 F         1 <0>        -0.1699
     11 C8         -1.3328    2.1134    0.0199 C.3       1 <0>         0.5135
     12 F4         -1.7338    2.3334    1.3420 F         1 <0>        -0.1679
     13 F5         -1.1868    3.3417   -0.6337 F         1 <0>        -0.1697
     14 F6         -2.2996    1.3465   -0.6392 F         1 <0>        -0.1692
     15 C9          3.6569    2.1603   -0.0219 C.2       1 <0>         0.5655
     16 O1          4.7161    1.5642   -0.0356 O.2       1 <0>        -0.5188
     17 N1          3.6421    3.5080   -0.0145 N.am      1 <0>        -0.5170
     18 N2          4.8475    4.2218   -0.0227 N.am      1 <0>        -0.5202
     19 C10         4.8327    5.5695   -0.0153 C.2       1 <0>         0.5180
     20 O2          3.7758    6.1642   -0.0016 O.2       1 <0>        -0.5368
     21 C11         6.1293    6.3374   -0.0241 C.3       1 <0>        -0.1132
     22 C12         5.8332    7.8384   -0.0131 C.3       1 <0>        -0.1270
     23 C13         7.1299    8.6063   -0.0219 C.2       1 <0>         0.5169
     24 O3          8.1868    8.0115   -0.0356 O.2       1 <0>        -0.5342
     25 N3          7.1151    9.9539   -0.0145 N.am      1 <0>        -0.7249
     26 C14         8.3756   10.7004   -0.0231 C.3       1 <0>         0.1832
     27 C15         9.1943   10.3330    1.2161 C.3       1 <0>        -0.1215
     28 C16        10.5108   11.1126    1.2071 C.3       1 <0>        -0.0829
     29 C17        10.2147   12.6136    1.2182 C.3       1 <0>        -0.1117
     30 C18         9.3959   12.9811   -0.0210 C.3       1 <0>        -0.0807
     31 C19         8.0795   12.2015   -0.0121 C.3       1 <0>        -0.1154
     32 C20        10.1897   12.6270   -1.2802 C.3       1 <0>        -0.1117
     33 C21        10.4859   11.1260   -1.2912 C.3       1 <0>        -0.0829
     34 C22        11.3046   10.7586   -0.0520 C.3       1 <0>        -0.1094
     35 C23         9.1694   10.3464   -1.2822 C.3       1 <0>        -0.1216
     36 H1          3.3358   -0.5219   -0.0331 H         1 <0>         0.1656
     37 H2          1.1508    3.1682    0.0078 H         1 <0>         0.1515
     38 H3         -0.9272   -0.5544    0.0083 H         1 <0>         0.1603
     39 H4          2.7968    3.9836   -0.0035 H         1 <0>         0.4321
     40 H5          5.6928    3.7462   -0.0337 H         1 <0>         0.4369
     41 H6          6.7126    6.0756    0.8587 H         1 <0>         0.1112
     42 H7          6.6949    6.0852   -0.9212 H         1 <0>         0.1112
     43 H8          5.2499    8.1002   -0.8959 H         1 <0>         0.1036
     44 H9          5.2677    8.0906    0.8839 H         1 <0>         0.1035
     45 H10         6.2698   10.4296   -0.0036 H         1 <0>         0.4008
     46 H11         8.6288   10.5852    2.1131 H         1 <0>         0.0591
     47 H12         9.4053    9.2636    1.2082 H         1 <0>         0.0856
     48 H13        11.0940   10.8508    2.0900 H         1 <0>         0.0722
     49 H14        11.1525   13.1690    1.2118 H         1 <0>         0.0650
     50 H15         9.6491   12.8658    2.1152 H         1 <0>         0.0623
     51 H16         9.1850   14.0504   -0.0132 H         1 <0>         0.0750
     52 H17         7.4962   12.4632   -0.8949 H         1 <0>         0.0685
     53 H18         7.5139   12.4537    0.8849 H         1 <0>         0.0685
     54 H19         9.6065   12.8888   -2.1630 H         1 <0>         0.0623
     55 H20        11.1276   13.1824   -1.2865 H         1 <0>         0.0650
     56 H21        11.0514   10.8738   -2.1882 H         1 <0>         0.0722
     57 H22        12.2424   11.3140   -0.0584 H         1 <0>         0.0627
     58 H23        11.5155    9.6892   -0.0598 H         1 <0>         0.0648
     59 H24         9.3804    9.2770   -1.2901 H         1 <0>         0.0856
     60 H25         8.5861   10.6082   -2.1651 H         1 <0>         0.0591
@<TRIPOS>BOND
     1    1    6 ar
     2    1    2 ar
     3    1   36 1
     4    2    3 ar
     5    2   15 1
     6    3    4 ar
     7    3   37 1
     8    4    5 ar
     9    4   11 1
    10    5    6 ar
    11    5   38 1
    12    6    7 1
    13    7    8 1
    14    7    9 1
    15    7   10 1
    16   11   12 1
    17   11   13 1
    18   11   14 1
    19   15   16 2
    20   15   17 am
    21   17   18 1
    22   17   39 1
    23   18   19 am
    24   18   40 1
    25   19   20 2
    26   19   21 1
    27   21   22 1
    28   21   41 1
    29   21   42 1
    30   22   23 1
    31   22   43 1
    32   22   44 1
    33   23   24 2
    34   23   25 am
    35   25   26 1
    36   25   45 1
    37   26   31 1
    38   26   35 1
    39   26   27 1
    40   27   28 1
    41   27   46 1
    42   27   47 1
    43   28   34 1
    44   28   29 1
    45   28   48 1
    46   29   30 1
    47   29   49 1
    48   29   50 1
    49   30   31 1
    50   30   32 1
    51   30   51 1
    52   31   52 1
    53   31   53 1
    54   32   33 1
    55   32   54 1
    56   32   55 1
    57   33   34 1
    58   33   35 1
    59   33   56 1
    60   34   57 1
    61   34   58 1
    62   35   59 1
    63   35   60 1
@<TRIPOS>MOLECULE
ZINC16994316
   65    68     0     0     0
SMALL
USER_CHARGES
N-[4-[[4-[(4-methoxyphenyl)amino]-6-methyl-pyrimidin-2-yl]amino]phenyl]-2,4,6-trimethyl-benzenesulfonamide
@<TRIPOS>ATOM
      1 C1         -0.0596    8.7958    1.0744 C.3       1 <0>        -0.1258
      2 C2          0.8570    7.7685    1.6873 C.ar      1 <0>        -0.0143
      3 C3          0.3273    6.6854    2.3635 C.ar      1 <0>        -0.1528
      4 C4          1.1681    5.7465    2.9311 C.ar      1 <0>         0.0326
      5 C5          2.5387    5.8903    2.8221 C.ar      1 <0>        -0.6963
      6 C6          3.0684    6.9733    2.1459 C.ar      1 <0>         0.0315
      7 C7          2.2275    7.9124    1.5783 C.ar      1 <0>        -0.1532
      8 C8          4.5625    7.1301    2.0270 C.3       1 <0>        -0.1509
      9 S1          3.6104    4.6928    3.5445 S.o2      1 <0>         2.6884
     10 O1          4.9144    5.2574    3.5366 O.2       1 <0>        -0.9402
     11 O2          2.9791    4.2503    4.7382 O.2       1 <0>        -0.9496
     12 N1          3.6518    3.3917    2.5208 N.pl3     1 <0>        -1.0575
     13 C9          4.2538    3.5100    1.2630 C.ar      1 <0>         0.1401
     14 C10         3.9753    4.6085    0.4603 C.ar      1 <0>        -0.1473
     15 C11         4.5737    4.7279   -0.7783 C.ar      1 <0>        -0.0758
     16 C12         5.4449    3.7437   -1.2263 C.ar      1 <0>         0.1594
     17 C13         5.7194    2.6427   -0.4259 C.ar      1 <0>        -0.1207
     18 C14         5.1255    2.5260    0.8151 C.ar      1 <0>        -0.1075
     19 N2          6.0473    3.8618   -2.4856 N.pl3     1 <0>        -0.6395
     20 C15         5.3205    4.3525   -3.5575 C.ar      1 <0>         0.5985
     21 N3          4.0265    4.5935   -3.4044 N.ar      1 <0>        -0.5855
     22 C16         3.2991    5.0676   -4.4051 C.ar      1 <0>         0.2413
     23 C17         3.9009    5.3024   -5.6262 C.ar      1 <0>        -0.3298
     24 C18         5.2650    5.0340   -5.7591 C.ar      1 <0>         0.4698
     25 N4          5.9351    4.5640   -4.7115 N.ar      1 <0>        -0.6084
     26 N5          5.9108    5.2548   -6.9655 N.pl3     1 <0>        -0.6487
     27 C19         7.2576    4.9016   -7.1136 C.ar      1 <0>         0.1182
     28 C20         7.7524    3.7690   -6.4804 C.ar      1 <0>        -0.0703
     29 C21         9.0797    3.4187   -6.6308 C.ar      1 <0>        -0.1893
     30 C22         9.9210    4.2036   -7.4056 C.ar      1 <0>         0.1123
     31 C23         9.4288    5.3380   -8.0341 C.ar      1 <0>        -0.1321
     32 C24         8.1005    5.6868   -7.8890 C.ar      1 <0>        -0.1068
     33 O3         11.2291    3.8606   -7.5493 O.3       1 <0>        -0.3183
     34 C25        11.6682    2.6801   -6.8742 C.3       1 <0>         0.0272
     35 C26         1.8296    5.3425   -4.2149 C.3       1 <0>        -0.1060
     36 C27         0.5907    4.5652    3.6675 C.3       1 <0>        -0.1380
     37 H1         -0.2941    8.5080    0.0496 H         1 <0>         0.0805
     38 H2         -0.9801    8.8540    1.6552 H         1 <0>         0.0734
     39 H3          0.4326    9.7684    1.0751 H         1 <0>         0.0733
     40 H4         -0.7434    6.5731    2.4487 H         1 <0>         0.1326
     41 H5          2.6413    8.7585    1.0500 H         1 <0>         0.1326
     42 H6          4.9556    7.5704    2.9433 H         1 <0>         0.0922
     43 H7          5.0188    6.1530    1.8684 H         1 <0>         0.1026
     44 H8          4.7936    7.7803    1.1832 H         1 <0>         0.0707
     45 H9          3.2587    2.5477    2.7930 H         1 <0>         0.4255
     46 H10         3.2937    5.3713    0.8065 H         1 <0>         0.1382
     47 H11         4.3608    5.5846   -1.4006 H         1 <0>         0.1347
     48 H12         6.3973    1.8774   -0.7743 H         1 <0>         0.1318
     49 H13         5.3390    1.6696    1.4375 H         1 <0>         0.1344
     50 H14         6.9733    3.6000   -2.6068 H         1 <0>         0.4232
     51 H15         3.3295    5.6844   -6.4592 H         1 <0>         0.1419
     52 H16         5.4297    5.6540   -7.7072 H         1 <0>         0.4218
     53 H17         7.0984    3.1601   -5.8739 H         1 <0>         0.1351
     54 H18         9.4636    2.5355   -6.1421 H         1 <0>         0.1297
     55 H19        10.0846    5.9488   -8.6368 H         1 <0>         0.1344
     56 H20         7.7173    6.5698   -8.3787 H         1 <0>         0.1313
     57 H21        11.5118    2.7956   -5.8017 H         1 <0>         0.0556
     58 H22        11.0993    1.8229   -7.2341 H         1 <0>         0.0551
     59 H23        12.7283    2.5216   -7.0719 H         1 <0>         0.1004
     60 H24         1.2578    4.4478   -4.4610 H         1 <0>         0.0859
     61 H25         1.6430    5.6190   -3.1772 H         1 <0>         0.0819
     62 H26         1.5253    6.1596   -4.8690 H         1 <0>         0.0807
     63 H27         0.5188    4.7990    4.7297 H         1 <0>         0.0988
     64 H28        -0.4022    4.3432    3.2763 H         1 <0>         0.0802
     65 H29         1.2378    3.6991    3.5291 H         1 <0>         0.0671
@<TRIPOS>BOND
     1    1    2 1
     2    1   37 1
     3    1   38 1
     4    1   39 1
     5    2    7 ar
     6    2    3 ar
     7    3    4 ar
     8    3   40 1
     9    4    5 ar
    10    4   36 1
    11    5    6 ar
    12    5    9 1
    13    6    7 ar
    14    6    8 1
    15    7   41 1
    16    8   42 1
    17    8   43 1
    18    8   44 1
    19    9   10 2
    20    9   11 2
    21    9   12 1
    22   12   13 1
    23   12   45 1
    24   13   18 ar
    25   13   14 ar
    26   14   15 ar
    27   14   46 1
    28   15   16 ar
    29   15   47 1
    30   16   17 ar
    31   16   19 1
    32   17   18 ar
    33   17   48 1
    34   18   49 1
    35   19   20 1
    36   19   50 1
    37   20   25 ar
    38   20   21 ar
    39   21   22 ar
    40   22   23 ar
    41   22   35 1
    42   23   24 ar
    43   23   51 1
    44   24   25 ar
    45   24   26 1
    46   26   27 1
    47   26   52 1
    48   27   32 ar
    49   27   28 ar
    50   28   29 ar
    51   28   53 1
    52   29   30 ar
    53   29   54 1
    54   30   31 ar
    55   30   33 1
    56   31   32 ar
    57   31   55 1
    58   32   56 1
    59   33   34 1
    60   34   57 1
    61   34   58 1
    62   34   59 1
    63   35   60 1
    64   35   61 1
    65   35   62 1
    66   36   63 1
    67   36   64 1
    68   36   65 1
@<TRIPOS>MOLECULE
ZINC30829676
   65    68     0     0     0
SMALL
USER_CHARGES
N-[[4-hydroxy-3-(5-isopropyl-1,3-benzoxazol-2-yl)-5-methyl-phenyl]carbamothioyl]-4-isopropoxy-benzamide
@<TRIPOS>ATOM
      1 C1          2.3603   -8.8203   -0.2987 C.3       1 <0>        -0.0992
      2 C2          3.5660   -7.9372   -0.4926 C.ar      1 <0>        -0.1309
      3 C3          3.4252   -6.5635   -0.4653 C.ar      1 <0>        -0.0482
      4 C4          4.5319   -5.7414   -0.6437 C.ar      1 <0>         0.0745
      5 C5          5.7834   -6.2962   -0.8551 C.ar      1 <0>         0.0216
      6 C6          5.9328   -7.6834   -0.8786 C.ar      1 <0>        -0.1243
      7 C7          4.8128   -8.5054   -0.6984 C.ar      1 <0>         0.2122
      8 O1          4.9489   -9.8566   -0.7259 O.3       1 <0>        -0.4957
      9 C8          7.2644   -8.2822   -1.0983 C.2       1 <0>         0.3060
     10 N1          8.3708   -7.6060   -1.2821 N.2       1 <0>        -0.4550
     11 C9          9.3952   -8.4819   -1.4478 C.ar      1 <0>         0.0371
     12 C10        10.7660   -8.3315   -1.6716 C.ar      1 <0>        -0.0595
     13 C11        11.5621   -9.4467   -1.8062 C.ar      1 <0>        -0.0726
     14 C12        11.0117  -10.7171   -1.7211 C.ar      1 <0>        -0.0869
     15 C13         9.6597  -10.8810   -1.5004 C.ar      1 <0>        -0.0879
     16 C14         8.8424   -9.7700   -1.3623 C.ar      1 <0>         0.0069
     17 O2          7.5186   -9.6038   -1.1450 O.3       1 <0>        -0.2349
     18 C15        13.0411   -9.2861   -2.0472 C.3       1 <0>        -0.0556
     19 C16        13.8183   -9.9539   -0.9111 C.3       1 <0>        -0.1476
     20 C17        13.4155   -9.9438   -3.3768 C.3       1 <0>        -0.1471
     21 N2          4.3803   -4.3490   -0.6154 N.pl3     1 <0>        -0.6286
     22 C18         5.2432   -3.5913    0.0901 C.2       1 <0>         0.5170
     23 S1          6.5756   -4.3211    0.8794 S.2       1 <0>        -0.4924
     24 N3          5.0572   -2.2591    0.1742 N.am      1 <0>        -0.6531
     25 C19         5.9201   -1.5014    0.8798 C.2       1 <0>         0.5409
     26 O3          6.8661   -2.0196    1.4402 O.2       1 <0>        -0.4080
     27 C20         5.7165   -0.0432    0.9719 C.ar      1 <0>        -0.1783
     28 C21         6.6102    0.7444    1.7031 C.ar      1 <0>        -0.0096
     29 C22         6.4168    2.1050    1.7862 C.ar      1 <0>        -0.2182
     30 C23         5.3345    2.6957    1.1442 C.ar      1 <0>         0.1677
     31 C24         4.4434    1.9160    0.4160 C.ar      1 <0>        -0.1595
     32 C25         4.6295    0.5547    0.3278 C.ar      1 <0>        -0.0471
     33 O4          5.1472    4.0371    1.2289 O.3       1 <0>        -0.3101
     34 C26         5.9985    4.7557    2.1238 C.3       1 <0>         0.0750
     35 C27         7.3042    5.1119    1.4101 C.3       1 <0>        -0.1841
     36 C28         5.2975    6.0387    2.5749 C.3       1 <0>        -0.1516
     37 H1          1.4677   -8.1948   -0.1506 H         1 <0>         0.0663
     38 H2          2.5115   -9.4585    0.5844 H         1 <0>         0.0716
     39 H3          2.2217   -9.4522   -1.1884 H         1 <0>         0.0711
     40 H4          2.4509   -6.1260   -0.3049 H         1 <0>         0.1390
     41 H5          6.6420   -5.6568   -0.9978 H         1 <0>         0.1643
     42 H6          5.9393  -10.3064   -0.8894 H         1 <0>         0.4341
     43 H7         11.1994   -7.3446   -1.7384 H         1 <0>         0.1373
     44 H8         11.6463  -11.5844   -1.8283 H         1 <0>         0.1415
     45 H9          9.2388  -11.8735   -1.4353 H         1 <0>         0.1382
     46 H10        13.2776   -8.2124   -2.0815 H         1 <0>         0.0826
     47 H11        14.8978   -9.8367   -1.0870 H         1 <0>         0.0622
     48 H12        13.5668  -11.0241   -0.8744 H         1 <0>         0.0587
     49 H13        13.5490   -9.4810    0.0448 H         1 <0>         0.0582
     50 H14        14.4950   -9.8266   -3.5527 H         1 <0>         0.0621
     51 H15        12.8566   -9.4636   -4.1936 H         1 <0>         0.0576
     52 H16        13.1641  -11.0140   -3.3401 H         1 <0>         0.0587
     53 H17         3.5569   -3.8740   -1.1690 H         1 <0>         0.4310
     54 H18         4.2011   -1.7902   -0.3330 H         1 <0>         0.4303
     55 H19         7.4515    0.2863    2.2019 H         1 <0>         0.1429
     56 H20         7.1044    2.7137    2.3546 H         1 <0>         0.1408
     57 H21         3.6036    2.3788   -0.0811 H         1 <0>         0.1397
     58 H22         3.9369   -0.0503   -0.2384 H         1 <0>         0.1290
     59 H23         6.1794    4.0803    2.9730 H         1 <0>         0.0772
     60 H24         7.9595    5.6651    2.0990 H         1 <0>         0.0772
     61 H25         7.0835    5.7372    0.5324 H         1 <0>         0.0715
     62 H26         7.8082    4.1895    1.0858 H         1 <0>         0.0651
     63 H27         5.9529    6.5918    3.2638 H         1 <0>         0.0814
     64 H28         4.3588    5.7826    3.0880 H         1 <0>         0.0670
     65 H29         5.0769    6.6640    1.6972 H         1 <0>         0.0704
@<TRIPOS>BOND
     1    1    2 1
     2    1   37 1
     3    1   38 1
     4    1   39 1
     5    2    7 ar
     6    2    3 ar
     7    3    4 ar
     8    3   40 1
     9    4    5 ar
    10    4   21 1
    11    5    6 ar
    12    5   41 1
    13    6    7 ar
    14    6    9 1
    15    7    8 1
    16    8   42 1
    17    9   17 1
    18    9   10 2
    19   10   11 1
    20   11   16 ar
    21   11   12 ar
    22   12   13 ar
    23   12   43 1
    24   13   14 ar
    25   13   18 1
    26   14   15 ar
    27   14   44 1
    28   15   16 ar
    29   15   45 1
    30   16   17 1
    31   18   19 1
    32   18   20 1
    33   18   46 1
    34   19   47 1
    35   19   48 1
    36   19   49 1
    37   20   50 1
    38   20   51 1
    39   20   52 1
    40   21   22 1
    41   21   53 1
    42   22   23 2
    43   22   24 1
    44   24   25 am
    45   24   54 1
    46   25   26 2
    47   25   27 1
    48   27   32 ar
    49   27   28 ar
    50   28   29 ar
    51   28   55 1
    52   29   30 ar
    53   29   56 1
    54   30   31 ar
    55   30   33 1
    56   31   32 ar
    57   31   57 1
    58   32   58 1
    59   33   34 1
    60   34   35 1
    61   34   36 1
    62   34   59 1
    63   35   60 1
    64   35   61 1
    65   35   62 1
    66   36   63 1
    67   36   64 1
    68   36   65 1
@<TRIPOS>MOLECULE
ZINC16951865
   57    59     0     0     0
SMALL
USER_CHARGES

@<TRIPOS>ATOM
      1 C1         -0.7823   -0.7160    1.3554 C.3       1 <0>        -0.1597
      2 C2         -1.0485   -0.0123    0.0496 C.2       1 <0>         0.3210
      3 C3         -1.3956    1.3408    0.0435 C.2       1 <0>        -0.3284
      4 C4         -1.6108    2.0363    1.2539 C.2       1 <0>         0.0057
      5 C5         -1.9476    3.3536    1.2270 C.2       1 <0>        -0.1252
      6 C6         -2.0883    4.0441    0.0256 C.2       1 <0>        -0.0126
      7 C7         -1.8948    3.4319   -1.1748 C.2       1 <0>        -0.2394
      8 C8         -1.5388    2.0731   -1.2212 C.2       1 <0>         0.4023
      9 O1         -1.3566    1.5111   -2.2925 O.2       1 <0>        -0.5398
     10 Cl1        -2.2085    4.1934    2.7238 Cl        1 <0>        -0.0802
     11 N1         -0.9522   -0.6853   -1.1069 N.pl3     1 <0>        -0.4189
     12 N2         -0.7109   -2.0653   -1.0963 N.am      1 <0>        -0.5323
     13 C9         -0.5126   -2.7237   -2.2555 C.2       1 <0>         0.5617
     14 O2         -0.6325   -2.1387   -3.3156 O.2       1 <0>        -0.4944
     15 C10        -0.1517   -4.1473   -2.2390 C.2       1 <0>         0.0497
     16 C11         0.1820   -4.7744   -3.3916 C.2       1 <0>         0.0052
     17 C12         0.4586   -3.9885   -4.6024 C.ar      1 <0>        -0.1152
     18 C13         1.2251   -2.8199   -4.5214 C.ar      1 <0>         0.0420
     19 C14         1.4811   -2.0874   -5.6587 C.ar      1 <0>        -0.2172
     20 C15         0.9800   -2.5063   -6.8857 C.ar      1 <0>         0.2173
     21 C16         0.2182   -3.6653   -6.9716 C.ar      1 <0>        -0.0945
     22 C17        -0.0386   -4.4089   -5.8412 C.ar      1 <0>         0.0085
     23 N3         -0.3126   -4.1051   -8.2815 N.pl3     1 <0>         0.0431
     24 O3         -0.9755   -5.1133   -8.3575 O.2       1 <0>        -0.1775
     25 O4         -0.0831   -3.4562   -9.2754 O.3       1 <0>        -0.1354
     26 O5          1.2355   -1.7802   -8.0044 O.3       1 <0>        -0.2782
     27 C18         2.0246   -0.5995   -7.8452 C.3       1 <0>         0.0165
     28 N4         -0.1529   -4.8554   -1.0323 N.am      1 <0>        -0.6791
     29 C19        -1.2868   -4.9551   -0.3106 C.2       1 <0>         0.5487
     30 O6         -2.3290   -4.5106   -0.7514 O.2       1 <0>        -0.5031
     31 C20        -1.2632   -5.6049    1.0168 C.ar      1 <0>        -0.1477
     32 C21        -0.0671   -6.1111    1.5284 C.ar      1 <0>        -0.0849
     33 C22        -0.0519   -6.7159    2.7682 C.ar      1 <0>        -0.1248
     34 C23        -1.2187   -6.8213    3.5042 C.ar      1 <0>        -0.0836
     35 C24        -2.4077   -6.3217    3.0030 C.ar      1 <0>        -0.1242
     36 C25        -2.4357   -5.7098    1.7669 C.ar      1 <0>        -0.0546
     37 H1         -1.7116   -1.1402    1.7356 H         1 <0>         0.1108
     38 H2         -0.0568   -1.5139    1.1968 H         1 <0>         0.0827
     39 H3         -0.3859   -0.0029    2.0782 H         1 <0>         0.1155
     40 H4         -1.5084    1.5230    2.1986 H         1 <0>         0.1332
     41 H5         -2.3577    5.0897    0.0468 H         1 <0>         0.1298
     42 H6         -2.0109    3.9913   -2.0913 H         1 <0>         0.1376
     43 H7         -1.0496   -0.2165   -1.9504 H         1 <0>         0.4580
     44 H8         -0.6865   -2.5470   -0.2546 H         1 <0>         0.4245
     45 H9          0.2451   -5.8522   -3.4213 H         1 <0>         0.1595
     46 H10         1.6146   -2.4934   -3.5685 H         1 <0>         0.1337
     47 H11         2.0721   -1.1855   -5.5973 H         1 <0>         0.1535
     48 H12        -0.6268   -5.3121   -5.9098 H         1 <0>         0.1620
     49 H13         2.1531   -0.1152   -8.8132 H         1 <0>         0.1148
     50 H14         1.5219    0.0839   -7.1609 H         1 <0>         0.0659
     51 H15         3.0006   -0.8666   -7.4402 H         1 <0>         0.0642
     52 H16         0.6624   -5.2745   -0.7151 H         1 <0>         0.4183
     53 H17         0.8444   -6.0297    0.9547 H         1 <0>         0.1271
     54 H18         0.8728   -7.1083    3.1650 H         1 <0>         0.1333
     55 H19        -1.2015   -7.2960    4.4741 H         1 <0>         0.1319
     56 H20        -3.3150   -6.4075    3.5825 H         1 <0>         0.1345
     57 H21        -3.3636   -5.3165    1.3786 H         1 <0>         0.1383
@<TRIPOS>BOND
     1    1    2 1
     2    1   37 1
     3    1   38 1
     4    1   39 1
     5    2    3 2
     6    2   11 1
     7    3    8 1
     8    3    4 1
     9    4    5 2
    10    4   40 1
    11    5    6 1
    12    5   10 1
    13    6    7 2
    14    6   41 1
    15    7    8 1
    16    7   42 1
    17    8    9 2
    18   11   12 1
    19   11   43 1
    20   12   13 am
    21   12   44 1
    22   13   14 2
    23   13   15 1
    24   15   16 2
    25   15   28 1
    26   16   17 1
    27   16   45 1
    28   17   22 ar
    29   17   18 ar
    30   18   19 ar
    31   18   46 1
    32   19   20 ar
    33   19   47 1
    34   20   21 ar
    35   20   26 1
    36   21   22 ar
    37   21   23 1
    38   22   48 1
    39   23   24 2
    40   23   25 1
    41   26   27 1
    42   27   49 1
    43   27   50 1
    44   27   51 1
    45   28   29 am
    46   28   52 1
    47   29   30 2
    48   29   31 1
    49   31   36 ar
    50   31   32 ar
    51   32   33 ar
    52   32   53 1
    53   33   34 ar
    54   33   54 1
    55   34   35 ar
    56   34   55 1
    57   35   36 ar
    58   35   56 1
    59   36   57 1
@<TRIPOS>MOLECULE
ZINC44940090
   73    78     0     0     0
SMALL
USER_CHARGES

@<TRIPOS>ATOM
      1 C1         -0.0335    1.4324    0.0065 C.3       1 <0>         0.0339
      2 O1         -0.0154    0.0035    0.0005 O.3       1 <0>        -0.3544
      3 C2          0.5836   -0.5939   -1.0416 C.2       1 <0>         0.4411
      4 O2          1.0762    0.0741   -1.9196 O.2       1 <0>        -0.4836
      5 C3          0.6418   -2.0980   -1.1165 C.3       1 <0>         0.1669
      6 H1         -0.3710   -2.5006   -1.1287 H         1 <0>         0.1262
      7 C4          1.3917   -2.6406    0.1017 C.3       1 <0>        -0.0455
      8 C5          1.3439   -4.1468    0.0911 C.2       1 <0>        -0.1774
      9 C6          0.4548   -4.9220    0.7319 C.2       1 <0>         0.0686
     10 N1          0.7254   -6.2411    0.4890 N.pl3     1 <0>        -0.5933
     11 H2          0.2192   -6.9884    0.8444 H         1 <0>         0.4176
     12 C7          1.8232   -6.3498   -0.3349 C.ar      1 <0>         0.0956
     13 C8          2.2550   -5.0425   -0.6255 C.ar      1 <0>        -0.0916
     14 C9          3.3602   -4.8421   -1.4543 C.ar      1 <0>        -0.0790
     15 C10         4.0158   -5.9183   -1.9829 C.ar      1 <0>        -0.1380
     16 C11         3.5914   -7.2097   -1.7027 C.ar      1 <0>        -0.0984
     17 C12         2.5086   -7.4306   -0.8796 C.ar      1 <0>        -0.1257
     18 N2          1.3416   -2.4993   -2.3394 N.am      1 <0>        -0.7033
     19 C13         0.6659   -2.5966   -3.5014 C.2       1 <0>         0.5368
     20 O3         -0.5215   -2.3518   -3.5348 O.2       1 <0>        -0.5341
     21 C14         1.3857   -3.0095   -4.7594 C.3       1 <0>        -0.0886
     22 H3          2.1793   -2.2941   -4.9753 H         1 <0>         0.1107
     23 C15         1.9919   -4.4010   -4.5667 C.3       1 <0>        -0.1119
     24 C16         2.7228   -4.8202   -5.8438 C.3       1 <0>        -0.1186
     25 C17         1.7335   -4.8519   -7.0105 C.3       1 <0>        -0.1183
     26 C18         1.1273   -3.4604   -7.2032 C.3       1 <0>        -0.1105
     27 C19         0.3964   -3.0412   -5.9260 C.3       1 <0>        -0.0869
     28 H4         -0.3972   -3.7565   -5.7101 H         1 <0>         0.0961
     29 C20        -0.2007   -1.6706   -6.1158 C.2       1 <0>         0.5420
     30 O4          0.4080   -0.6879   -5.7489 O.2       1 <0>        -0.5278
     31 N3         -1.4111   -1.5369   -6.6933 N.am      1 <0>        -0.6052
     32 C21        -1.9628   -0.2061   -6.9891 C.3       1 <0>         0.1133
     33 C22        -2.1044   -0.0524   -8.5082 C.3       1 <0>        -0.0608
     34 C23        -2.7216   -1.3066   -9.0723 C.2       1 <0>        -0.1500
     35 C24        -3.3596   -1.4920  -10.3601 C.ar      1 <0>        -0.1030
     36 C25        -3.5990   -0.6271  -11.4324 C.ar      1 <0>        -0.0652
     37 C26        -4.2449   -1.1549  -12.5230 C.ar      1 <0>        -0.1499
     38 C27        -4.6456   -2.4801  -12.5710 C.ar      1 <0>        -0.0981
     39 C28        -4.4217   -3.3578  -11.5245 C.ar      1 <0>        -0.1323
     40 C29        -3.7671   -2.8500  -10.4041 C.ar      1 <0>         0.1026
     41 N4         -3.3940   -3.4245   -9.2232 N.pl3     1 <0>        -0.5809
     42 H5         -3.5462   -4.3513   -8.9807 H         1 <0>         0.4159
     43 C30        -2.7719   -2.4951   -8.4329 C.2       1 <0>         0.0467
     44 C31        -2.2127   -2.7200   -7.0499 C.3       1 <0>         0.1778
     45 H6          0.9894    1.8088    0.0014 H         1 <0>         0.0603
     46 H7         -0.5577    1.7928   -0.8786 H         1 <0>         0.0600
     47 H8         -0.5462    1.7855    0.9013 H         1 <0>         0.1028
     48 H9          2.4297   -2.3098    0.0665 H         1 <0>         0.0829
     49 H10         0.9225   -2.2686    1.0126 H         1 <0>         0.1027
     50 H11        -0.3542   -4.5583    1.3481 H         1 <0>         0.1725
     51 H12         3.6957   -3.8400   -1.6773 H         1 <0>         0.1150
     52 H13         4.8709   -5.7627   -2.6241 H         1 <0>         0.1234
     53 H14         4.1194   -8.0501   -2.1285 H         1 <0>         0.1250
     54 H15         2.1853   -8.4392   -0.6686 H         1 <0>         0.1190
     55 H16         2.2913   -2.6951   -2.3127 H         1 <0>         0.4037
     56 H17         2.6967   -4.3784   -3.7355 H         1 <0>         0.0777
     57 H18         1.1983   -5.1163   -4.3508 H         1 <0>         0.0684
     58 H19         3.5164   -4.1048   -6.0598 H         1 <0>         0.0678
     59 H20         3.1546   -5.8115   -5.7066 H         1 <0>         0.0710
     60 H21         2.2541   -5.1505   -7.9204 H         1 <0>         0.0701
     61 H22         0.9399   -5.5672   -6.7946 H         1 <0>         0.0642
     62 H23         1.9209   -2.7451   -7.4191 H         1 <0>         0.0742
     63 H24         0.4225   -3.4830   -8.0344 H         1 <0>         0.0702
     64 H25        -2.9410   -0.1040   -6.5192 H         1 <0>         0.0717
     65 H26        -1.2902    0.5612   -6.6058 H         1 <0>         0.0989
     66 H27        -2.7448    0.8012   -8.7304 H         1 <0>         0.0839
     67 H28        -1.1211    0.1019   -8.9525 H         1 <0>         0.0752
     68 H29        -3.2906    0.4076  -11.4039 H         1 <0>         0.1288
     69 H30        -4.4474   -0.5165  -13.3702 H         1 <0>         0.1185
     70 H31        -5.1502   -2.8407  -13.4551 H         1 <0>         0.1212
     71 H32        -4.7396   -4.3888  -11.5740 H         1 <0>         0.1275
     72 H33        -1.5823   -3.6092   -7.0463 H         1 <0>         0.0971
     73 H34        -3.0298   -2.8417   -6.3388 H         1 <0>         0.0871
@<TRIPOS>BOND
     1    1    2 1
     2    1   45 1
     3    1   46 1
     4    1   47 1
     5    2    3 1
     6    3    4 2
     7    3    5 1
     8    5    6 1
     9    5    7 1
    10    5   18 1
    11    7    8 1
    12    7   48 1
    13    7   49 1
    14    8   13 1
    15    8    9 2
    16    9   10 1
    17    9   50 1
    18   10   11 1
    19   10   12 1
    20   12   17 ar
    21   12   13 ar
    22   13   14 ar
    23   14   15 ar
    24   14   51 1
    25   15   16 ar
    26   15   52 1
    27   16   17 ar
    28   16   53 1
    29   17   54 1
    30   18   19 am
    31   18   55 1
    32   19   20 2
    33   19   21 1
    34   21   22 1
    35   21   27 1
    36   21   23 1
    37   23   24 1
    38   23   56 1
    39   23   57 1
    40   24   25 1
    41   24   58 1
    42   24   59 1
    43   25   26 1
    44   25   60 1
    45   25   61 1
    46   26   27 1
    47   26   62 1
    48   26   63 1
    49   27   28 1
    50   27   29 1
    51   29   30 2
    52   29   31 am
    53   31   44 1
    54   31   32 1
    55   32   33 1
    56   32   64 1
    57   32   65 1
    58   33   34 1
    59   33   66 1
    60   33   67 1
    61   34   43 2
    62   34   35 1
    63   35   40 ar
    64   35   36 ar
    65   36   37 ar
    66   36   68 1
    67   37   38 ar
    68   37   69 1
    69   38   39 ar
    70   38   70 1
    71   39   40 ar
    72   39   71 1
    73   40   41 1
    74   41   42 1
    75   41   43 1
    76   43   44 1
    77   44   72 1
    78   44   73 1
@<TRIPOS>MOLECULE
ZINC08820037
   58    61     0     0     0
SMALL
USER_CHARGES
N'-[6-[5-(benzo[1,3]dioxol-5-ylmethylene)-4-oxo-2-thioxo-thiazolidin-3-yl]hexanoyl]-2-hydroxy-benzohydrazide
@<TRIPOS>ATOM
      1 C1         -1.8627   -0.7217    0.5991 C.ar      1 <0>        -0.1351
      2 C2         -1.8942    0.0943   -0.5201 C.ar      1 <0>        -0.0699
      3 C3         -1.6249    1.4437   -0.4084 C.ar      1 <0>        -0.1547
      4 C4         -1.3110    1.9901    0.8272 C.ar      1 <0>         0.1756
      5 C5         -1.2786    1.1682    1.9618 C.ar      1 <0>        -0.1647
      6 C6         -1.5578   -0.1948    1.8352 C.ar      1 <0>        -0.0701
      7 C7         -0.9519    1.7391    3.2825 C.2       1 <0>         0.5620
      8 O1         -0.7098    2.9259    3.3887 O.2       1 <0>        -0.5200
      9 N1         -0.9218    0.9451    4.3711 N.am      1 <0>        -0.5241
     10 N2         -0.6116    1.4872    5.6252 N.am      1 <0>        -0.5230
     11 C8         -0.5815    0.6932    6.7138 C.2       1 <0>         0.5139
     12 O2         -0.8230   -0.4906    6.6078 O.2       1 <0>        -0.5379
     13 C9         -0.2478    1.2764    8.0627 C.3       1 <0>        -0.1297
     14 C10        -0.2821    0.1702    9.1192 C.3       1 <0>        -0.1028
     15 C11         0.0567    0.7622   10.4887 C.3       1 <0>        -0.1138
     16 C12         0.0224   -0.3440   11.5451 C.3       1 <0>        -0.1312
     17 C13         0.3612    0.2480   12.9147 C.3       1 <0>         0.0813
     18 N3          0.3283   -0.8112   13.9262 N.am      1 <0>        -0.5195
     19 C14         1.4328   -1.4900   14.1871 C.2       1 <0>         0.5467
     20 O3          2.4778   -1.2580   13.6078 O.2       1 <0>        -0.4543
     21 C15         1.3340   -2.5440   15.2165 C.2       1 <0>        -0.2460
     22 C16         2.2883   -3.3884   15.6848 C.2       1 <0>         0.0977
     23 C17         2.0031   -4.2515   16.8380 C.ar      1 <0>        -0.0935
     24 C18         0.8217   -4.0788   17.5696 C.ar      1 <0>        -0.0699
     25 C19         0.5552   -4.8932   18.6479 C.ar      1 <0>        -0.0980
     26 C20         1.4588   -5.8800   19.0199 C.ar      1 <0>         0.0682
     27 C21         2.6412   -6.0547   18.2990 C.ar      1 <0>         0.0305
     28 C22         2.9141   -5.2461   17.2134 C.ar      1 <0>        -0.0572
     29 O4          3.3478   -7.0780   18.8629 O.3       1 <0>        -0.3028
     30 C23         2.7843   -7.2557   20.1759 C.3       1 <0>         0.2115
     31 O5          1.4282   -6.7940   20.0324 O.3       1 <0>        -0.3008
     32 S1         -0.3878   -2.4030   15.6760 S.3       1 <0>         0.0761
     33 C24        -0.8262   -1.0681   14.5741 C.2       1 <0>         0.2599
     34 S2         -2.3453   -0.3018   14.3840 S.2       1 <0>        -0.3327
     35 O6         -1.0421    3.3151    0.9378 O.3       1 <0>        -0.4776
     36 H1         -2.0784   -1.7755    0.5023 H         1 <0>         0.1356
     37 H2         -2.1348   -0.3270   -1.4850 H         1 <0>         0.1357
     38 H3         -1.6555    2.0741   -1.2848 H         1 <0>         0.1398
     39 H4         -1.5352   -0.8345    2.7051 H         1 <0>         0.1305
     40 H5         -1.1149   -0.0017    4.2863 H         1 <0>         0.4302
     41 H6         -0.4185    2.4340    5.7099 H         1 <0>         0.4332
     42 H7          0.7482    1.7180    8.0313 H         1 <0>         0.1020
     43 H8         -0.9780    2.0446    8.3172 H         1 <0>         0.1032
     44 H9         -1.2781   -0.2715    9.1506 H         1 <0>         0.0749
     45 H10         0.4481   -0.5980    8.8647 H         1 <0>         0.0727
     46 H11         1.0527    1.2039   10.4573 H         1 <0>         0.0696
     47 H12        -0.6735    1.5304   10.7432 H         1 <0>         0.0735
     48 H13        -0.9736   -0.7856   11.5765 H         1 <0>         0.0764
     49 H14         0.7526   -1.1122   11.2907 H         1 <0>         0.0701
     50 H15         1.3572    0.6897   12.8833 H         1 <0>         0.1049
     51 H16        -0.3691    1.0162   13.1691 H         1 <0>         0.1141
     52 H17         3.2572   -3.4253   15.2092 H         1 <0>         0.1683
     53 H18         0.1181   -3.3101   17.2862 H         1 <0>         0.1431
     54 H19        -0.3583   -4.7612   19.2088 H         1 <0>         0.1494
     55 H20         3.8288   -5.3805   16.6552 H         1 <0>         0.1501
     56 H21         3.3195   -6.6502   20.9074 H         1 <0>         0.0917
     57 H22         2.8024   -8.3075   20.4612 H         1 <0>         0.1388
     58 H23        -0.1074    3.5373    0.8280 H         1 <0>         0.3980
@<TRIPOS>BOND
     1    1    6 ar
     2    1    2 ar
     3    1   36 1
     4    2    3 ar
     5    2   37 1
     6    3    4 ar
     7    3   38 1
     8    4    5 ar
     9    4   35 1
    10    5    6 ar
    11    5    7 1
    12    6   39 1
    13    7    8 2
    14    7    9 am
    15    9   10 1
    16    9   40 1
    17   10   11 am
    18   10   41 1
    19   11   12 2
    20   11   13 1
    21   13   14 1
    22   13   42 1
    23   13   43 1
    24   14   15 1
    25   14   44 1
    26   14   45 1
    27   15   16 1
    28   15   46 1
    29   15   47 1
    30   16   17 1
    31   16   48 1
    32   16   49 1
    33   17   18 1
    34   17   50 1
    35   17   51 1
    36   18   33 1
    37   18   19 am
    38   19   20 2
    39   19   21 1
    40   21   22 2
    41   21   32 1
    42   22   23 1
    43   22   52 1
    44   23   28 ar
    45   23   24 ar
    46   24   25 ar
    47   24   53 1
    48   25   26 ar
    49   25   54 1
    50   26   31 1
    51   26   27 ar
    52   27   28 ar
    53   27   29 1
    54   28   55 1
    55   29   30 1
    56   30   31 1
    57   30   56 1
    58   30   57 1
    59   32   33 1
    60   33   34 2
    61   35   58 1
@<TRIPOS>MOLECULE
ZINC20072895
   62    65     0     0     0
SMALL
USER_CHARGES
[4-[(E)-[[(Z)-2-benzamido-3-(2-hydroxyphenyl)prop-2-enoyl]hydrazono]methyl]phenyl] (Z)-3-(2-furyl)prop-2-enoate
@<TRIPOS>ATOM
      1 C1          9.6453   -4.8953    2.0889 C.ar      1 <0>        -0.0919
      2 C2          8.7483   -4.7998    3.1380 C.ar      1 <0>        -0.1256
      3 C3          7.3914   -4.7826    2.8900 C.ar      1 <0>        -0.0580
      4 C4          6.9239   -4.8619    1.5771 C.ar      1 <0>        -0.1323
      5 C5          7.8342   -4.9634    0.5236 C.ar      1 <0>        -0.0853
      6 C6          9.1886   -4.9747    0.7852 C.ar      1 <0>        -0.1260
      7 C7          5.4714   -4.8445    1.3040 C.2       1 <0>         0.5644
      8 O1          4.6841   -4.6631    2.2125 O.2       1 <0>        -0.5067
      9 N1          5.0196   -5.0298    0.0478 N.am      1 <0>        -0.6746
     10 C8          3.6553   -4.8971   -0.2316 C.2       1 <0>         0.0793
     11 C9          2.9784   -5.9215   -0.8043 C.2       1 <0>        -0.0510
     12 C10         3.6382   -7.2193   -1.0006 C.ar      1 <0>        -0.1167
     13 C11         4.6386   -7.6411   -0.1179 C.ar      1 <0>        -0.0581
     14 C12         5.2488   -8.8623   -0.3052 C.ar      1 <0>        -0.1642
     15 C13         4.8850   -9.6697   -1.3706 C.ar      1 <0>        -0.0623
     16 C14         3.9023   -9.2634   -2.2531 C.ar      1 <0>        -0.2186
     17 C15         3.2731   -8.0416   -2.0783 C.ar      1 <0>         0.1813
     18 O2          2.3076   -7.6416   -2.9447 O.3       1 <0>        -0.5057
     19 C16         2.9573   -3.6482    0.0956 C.2       1 <0>         0.5721
     20 O3          3.5655   -2.7278    0.6102 O.2       1 <0>        -0.4835
     21 N2          1.6429   -3.5203   -0.1736 N.am      1 <0>        -0.5875
     22 N3          0.9766   -2.3281    0.1388 N.2       1 <0>        -0.2148
     23 C17        -0.2896   -2.2050   -0.1205 C.2       1 <0>         0.1022
     24 C18        -0.9906   -0.9507    0.2081 C.ar      1 <0>        -0.0524
     25 C19        -2.3536   -0.8159   -0.0701 C.ar      1 <0>        -0.0728
     26 C20        -3.0036    0.3604    0.2340 C.ar      1 <0>        -0.1291
     27 C21        -2.3088    1.4072    0.8268 C.ar      1 <0>         0.1054
     28 C22        -0.9540    1.2777    1.1052 C.ar      1 <0>        -0.1199
     29 C23        -0.2944    0.1072    0.7993 C.ar      1 <0>        -0.0634
     30 O4         -2.9550    2.5630    1.1301 O.3       1 <0>        -0.2952
     31 C24        -3.8807    2.5327    2.1124 C.2       1 <0>         0.4972
     32 O5         -4.0468    1.5161    2.7609 O.2       1 <0>        -0.4712
     33 C25        -4.6565    3.6808    2.3874 C.2       1 <0>        -0.1838
     34 C26        -4.8823    4.0556    3.6727 C.2       1 <0>         0.0141
     35 C27        -4.5225    3.1925    4.7350 C.2       1 <0>        -0.0238
     36 C28        -5.2962    2.8943    5.8382 C.2       1 <0>        -0.1632
     37 C29        -4.5482    2.0022    6.6209 C.2       1 <0>        -0.2198
     38 C30        -3.3718    1.8024    5.9856 C.2       1 <0>        -0.0121
     39 O6         -3.3593    2.5187    4.8531 O.3       1 <0>        -0.1542
     40 H1         10.7066   -4.9084    2.2885 H         1 <0>         0.1286
     41 H2          9.1113   -4.7382    4.1533 H         1 <0>         0.1314
     42 H3          6.6923   -4.7084    3.7099 H         1 <0>         0.1362
     43 H4          7.4789   -5.0296   -0.4941 H         1 <0>         0.1242
     44 H5          9.8940   -5.0498   -0.0292 H         1 <0>         0.1302
     45 H6          5.7236   -5.2854   -0.7578 H         1 <0>         0.4338
     46 H7          1.9347   -5.7815   -1.1223 H         1 <0>         0.1412
     47 H8          4.9287   -7.0128    0.7112 H         1 <0>         0.1343
     48 H9          6.0178   -9.1894    0.3790 H         1 <0>         0.1270
     49 H10         5.3723  -10.6230   -1.5121 H         1 <0>         0.1270
     50 H11         3.6247   -9.8992   -3.0807 H         1 <0>         0.1305
     51 H12         2.0235   -8.2879   -3.7883 H         1 <0>         0.4394
     52 H13         1.0933   -4.3520   -0.6386 H         1 <0>         0.4010
     53 H14        -0.8392   -3.0367   -0.5854 H         1 <0>         0.1268
     54 H15        -2.8955   -1.6308   -0.5268 H         1 <0>         0.1370
     55 H16        -4.0557    0.4673    0.0150 H         1 <0>         0.1315
     56 H17        -0.4169    2.0955    1.5624 H         1 <0>         0.1361
     57 H18         0.7589    0.0075    1.0157 H         1 <0>         0.1440
     58 H19        -5.0776    4.2711    1.5603 H         1 <0>         0.1648
     59 H20        -5.3449    5.0301    3.8883 H         1 <0>         0.1739
     60 H21        -6.2847    3.2717    6.0551 H         1 <0>         0.1541
     61 H22        -4.8534    1.5608    7.5581 H         1 <0>         0.1521
     62 H23        -2.5710    1.1673    6.3345 H         1 <0>         0.2027
@<TRIPOS>BOND
     1    1    6 ar
     2    1    2 ar
     3    1   40 1
     4    2    3 ar
     5    2   41 1
     6    3    4 ar
     7    3   42 1
     8    4    5 ar
     9    4    7 1
    10    5    6 ar
    11    5   43 1
    12    6   44 1
    13    7    8 2
    14    7    9 am
    15    9   10 1
    16    9   45 1
    17   10   11 2
    18   10   19 1
    19   11   12 1
    20   11   46 1
    21   12   17 ar
    22   12   13 ar
    23   13   14 ar
    24   13   47 1
    25   14   15 ar
    26   14   48 1
    27   15   16 ar
    28   15   49 1
    29   16   17 ar
    30   16   50 1
    31   17   18 1
    32   18   51 1
    33   19   20 2
    34   19   21 am
    35   21   22 1
    36   21   52 1
    37   22   23 2
    38   23   24 1
    39   23   53 1
    40   24   29 ar
    41   24   25 ar
    42   25   26 ar
    43   25   54 1
    44   26   27 ar
    45   26   55 1
    46   27   28 ar
    47   27   30 1
    48   28   29 ar
    49   28   56 1
    50   29   57 1
    51   30   31 1
    52   31   32 2
    53   31   33 1
    54   33   34 2
    55   33   58 1
    56   34   35 1
    57   34   59 1
    58   35   39 1
    59   35   36 2
    60   36   37 1
    61   36   60 1
    62   37   38 2
    63   37   61 1
    64   38   39 1
    65   38   62 1
@<TRIPOS>MOLECULE
ZINC01880536
   55    59     0     0     0
SMALL
USER_CHARGES

@<TRIPOS>ATOM
      1 C1          0.7957    3.0136    1.2746 C.ar      1 <0>        -0.0826
      2 C2          2.0695    3.5430    1.1663 C.ar      1 <0>        -0.1201
      3 C3          3.1626    2.7061    1.0793 C.ar      1 <0>        -0.0348
      4 C4          2.9813    1.3217    1.1006 C.ar      1 <0>        -0.0697
      5 C5          1.6931    0.7943    1.2100 C.ar      1 <0>        -0.0589
      6 C6          0.6089    1.6427    1.2963 C.ar      1 <0>        -0.1190
      7 C7          4.1470    0.4194    1.0073 C.2       1 <0>         0.2162
      8 C8          5.0992    0.3872   -0.0055 C.2       1 <0>        -0.0800
      9 N1          5.9888   -0.5752    0.2881 N.2       1 <0>        -0.1675
     10 N2          5.6727   -1.1455    1.3967 N.2       1 <0>        -0.0410
     11 N3          4.5099   -0.5475    1.9017 N.pl3     1 <0>        -0.3062
     12 C9          3.8483   -0.8783    3.0883 C.2       1 <0>         0.2881
     13 C10         4.2582   -1.9167    4.0382 C.2       1 <0>         0.3577
     14 N4          3.4007   -1.9348    5.0213 N.2       1 <0>        -0.3329
     15 O1          2.4247   -0.9406    4.7642 O.3       1 <0>         0.0565
     16 N5          2.7655   -0.3122    3.5411 N.2       1 <0>        -0.2439
     17 N6          5.3701   -2.7419    3.9126 N.pl3     1 <0>        -0.8022
     18 C11         5.1274    1.2566   -1.1928 C.2       1 <0>         0.6230
     19 O2          4.2679    2.1039   -1.3470 O.2       1 <0>        -0.4602
     20 N7          6.1054    1.1143   -2.1092 N.am      1 <0>        -0.5693
     21 N8          6.1898    2.0046   -3.1876 N.2       1 <0>        -0.2072
     22 C12         7.1888    1.9310   -4.0135 C.2       1 <0>         0.1077
     23 C13         7.3106    2.9063   -5.1115 C.ar      1 <0>        -0.0520
     24 C14         8.4442    2.9073   -5.9273 C.ar      1 <0>        -0.0469
     25 C15         8.5516    3.8230   -6.9539 C.ar      1 <0>        -0.0941
     26 C16         7.5393    4.7416   -7.1788 C.ar      1 <0>        -0.0582
     27 C17         6.4132    4.7505   -6.3778 C.ar      1 <0>        -0.1182
     28 C18         6.2868    3.8343   -5.3464 C.ar      1 <0>         0.1419
     29 O3          5.1775    3.8389   -4.5624 O.3       1 <0>        -0.2749
     30 C19         4.1762    2.9947   -4.8783 C.2       1 <0>         0.5288
     31 O4          4.2886    2.2482   -5.8301 O.2       1 <0>        -0.4998
     32 C20         2.9417    2.9769   -4.0674 C.ar      1 <0>        -0.1111
     33 C21         2.7550    3.9186   -3.0535 C.ar      1 <0>        -0.0287
     34 C22         1.5997    3.8962   -2.3000 C.ar      1 <0>        -0.1224
     35 C23         0.6273    2.9434   -2.5470 C.ar      1 <0>        -0.0772
     36 C24         0.8059    2.0072   -3.5502 C.ar      1 <0>        -0.1354
     37 C25         1.9537    2.0217   -4.3151 C.ar      1 <0>        -0.0576
     38 Br1        10.0870    3.8244   -8.0579 Br        1 <0>        -0.0329
     39 H1         -0.0563    3.6734    1.3469 H         1 <0>         0.1287
     40 H2          2.2082    4.6139    1.1496 H         1 <0>         0.1308
     41 H3          4.1562    3.1206    0.9945 H         1 <0>         0.1243
     42 H4          1.5459   -0.2755    1.2267 H         1 <0>         0.1146
     43 H5         -0.3880    1.2361    1.3810 H         1 <0>         0.1298
     44 H6          5.9535   -2.6557    3.1425 H         1 <0>         0.4282
     45 H7          5.5625   -3.4038    4.5951 H         1 <0>         0.4240
     46 H8          6.7507    0.3953   -2.0221 H         1 <0>         0.3949
     47 H9          7.9306    1.1549   -3.8958 H         1 <0>         0.1324
     48 H10         9.2355    2.1929   -5.7547 H         1 <0>         0.1484
     49 H11         7.6309    5.4551   -7.9844 H         1 <0>         0.1466
     50 H12         5.6285    5.4701   -6.5589 H         1 <0>         0.1462
     51 H13         3.5134    4.6627   -2.8595 H         1 <0>         0.1312
     52 H14         1.4541    4.6238   -1.5153 H         1 <0>         0.1255
     53 H15        -0.2752    2.9301   -1.9539 H         1 <0>         0.1235
     54 H16         0.0430    1.2660   -3.7375 H         1 <0>         0.1268
     55 H17         2.0899    1.2933   -5.1007 H         1 <0>         0.1290
@<TRIPOS>BOND
     1    1    6 ar
     2    1    2 ar
     3    1   39 1
     4    2    3 ar
     5    2   40 1
     6    3    4 ar
     7    3   41 1
     8    4    5 ar
     9    4    7 1
    10    5    6 ar
    11    5   42 1
    12    6   43 1
    13    7   11 1
    14    7    8 2
    15    8    9 1
    16    8   18 1
    17    9   10 2
    18   10   11 1
    19   11   12 1
    20   12   16 2
    21   12   13 1
    22   13   14 2
    23   13   17 1
    24   14   15 1
    25   15   16 1
    26   17   44 1
    27   17   45 1
    28   18   19 2
    29   18   20 am
    30   20   21 1
    31   20   46 1
    32   21   22 2
    33   22   23 1
    34   22   47 1
    35   23   28 ar
    36   23   24 ar
    37   24   25 ar
    38   24   48 1
    39   25   26 ar
    40   25   38 1
    41   26   27 ar
    42   26   49 1
    43   27   28 ar
    44   27   50 1
    45   28   29 1
    46   29   30 1
    47   30   31 2
    48   30   32 1
    49   32   37 ar
    50   32   33 ar
    51   33   34 ar
    52   33   51 1
    53   34   35 ar
    54   34   52 1
    55   35   36 ar
    56   35   53 1
    57   36   37 ar
    58   36   54 1
    59   37   55 1
@<TRIPOS>MOLECULE
ZINC39481845
   67    70     0     0     0
SMALL
USER_CHARGES

@<TRIPOS>ATOM
      1 C1          1.9949    0.7600    0.2453 C.3       1 <0>        -0.1489
      2 C2          1.6647   -0.7301    0.1378 C.3       1 <0>        -0.0914
      3 C3          2.3901   -1.4945    1.2470 C.3       1 <0>        -0.1512
      4 C4          0.1549   -0.9298    0.2841 C.3       1 <0>        -0.0761
      5 C5         -0.1844   -2.3803    0.0562 C.ar      1 <0>        -0.0860
      6 C6         -0.4760   -2.8279   -1.2189 C.ar      1 <0>        -0.0796
      7 C7         -0.7881   -4.1574   -1.4349 C.ar      1 <0>        -0.1669
      8 C8         -0.8087   -5.0464   -0.3708 C.ar      1 <0>         0.1536
      9 C9         -0.5140   -4.5950    0.9155 C.ar      1 <0>         0.1502
     10 C10        -0.1975   -3.2609    1.1222 C.ar      1 <0>        -0.0873
     11 N1         -0.5336   -5.4873    1.9944 N.pl3     1 <0>        -0.6637
     12 C11         0.6788   -6.2200    2.3900 C.3       1 <0>         0.1446
     13 C12         0.3360   -7.7102    2.4899 C.3       1 <0>         0.0396
     14 N2         -0.8156   -7.8856    3.3850 N.3       1 <0>        -0.6439
     15 C13        -2.0134   -7.2267    2.8474 C.3       1 <0>        -0.4133
     16 H1         -2.2277   -7.6170    1.8525 H         1 <0>         0.1005
     17 C14        -1.7654   -5.7121    2.7659 C.3       1 <0>         0.1585
     18 S1         -3.4242   -7.5495    3.9411 S.o2      1 <0>         2.5019
     19 O1         -3.0935   -7.2079    5.2802 O.2       1 <0>        -0.9122
     20 O2         -4.6235   -7.0724    3.3468 O.2       1 <0>        -0.9285
     21 C15        -3.5954   -9.3032    3.9536 C.ar      1 <0>        -0.6666
     22 C16        -4.3999   -9.9258    3.0176 C.ar      1 <0>        -0.0247
     23 C17        -4.5342  -11.3015    3.0275 C.ar      1 <0>        -0.1377
     24 C18        -3.8637  -12.0547    3.9730 C.ar      1 <0>        -0.0607
     25 C19        -3.0585  -11.4322    4.9084 C.ar      1 <0>        -0.1381
     26 C20        -2.9208  -10.0568    4.8959 C.ar      1 <0>        -0.0217
     27 N3         -1.1249   -6.3931   -0.5871 N.pl3     1 <0>        -1.0496
     28 S2         -0.6442   -7.1426   -1.9833 S.o2      1 <0>         2.6896
     29 O3          0.7183   -6.7925   -2.1839 O.2       1 <0>        -0.9400
     30 O4         -1.0781   -8.4925   -1.8897 O.2       1 <0>        -0.9359
     31 C21        -1.5517   -6.4125   -3.3055 C.ar      1 <0>        -0.7088
     32 C22        -0.8882   -5.7182   -4.2989 C.ar      1 <0>        -0.0103
     33 C23        -1.5996   -5.1447   -5.3362 C.ar      1 <0>        -0.1443
     34 C24        -2.9765   -5.2648   -5.3829 C.ar      1 <0>        -0.0431
     35 C25        -3.6444   -5.9582   -4.3925 C.ar      1 <0>        -0.1615
     36 C26        -2.9322   -6.5392   -3.3531 C.ar      1 <0>         0.2085
     37 O5         -3.5865   -7.2268   -2.3805 O.3       1 <0>        -0.4895
     38 H2          3.0705    0.9023    0.1411 H         1 <0>         0.0558
     39 H3          1.4781    1.3046   -0.5449 H         1 <0>         0.0545
     40 H4          1.6712    1.1347    1.2164 H         1 <0>         0.0552
     41 H5          1.9884   -1.1048   -0.8333 H         1 <0>         0.0714
     42 H6          2.0665   -1.1198    2.2181 H         1 <0>         0.0539
     43 H7          2.1549   -2.5561    1.1704 H         1 <0>         0.0588
     44 H8          3.4658   -1.3523    1.1428 H         1 <0>         0.0534
     45 H9         -0.1547   -0.6375    1.2875 H         1 <0>         0.0741
     46 H10        -0.3657   -0.3152   -0.4503 H         1 <0>         0.0740
     47 H11        -0.4604   -2.1368   -2.0488 H         1 <0>         0.1297
     48 H12        -1.0161   -4.5036   -2.4322 H         1 <0>         0.1304
     49 H13         0.0353   -2.9088    2.1163 H         1 <0>         0.1321
     50 H14         1.4566   -6.0727    1.6407 H         1 <0>         0.0810
     51 H15         1.0257   -5.8584    3.3579 H         1 <0>         0.0698
     52 H16         0.0890   -8.0939    1.5000 H         1 <0>         0.0383
     53 H17         1.1923   -8.2545    2.8881 H         1 <0>         0.0963
     54 H18        -0.9898   -8.8634    3.5628 H         1 <0>         0.3480
     55 H19        -1.6489   -5.3025    3.7693 H         1 <0>         0.0826
     56 H20        -2.6043   -5.2287    2.2653 H         1 <0>         0.0903
     57 H21        -4.9237   -9.3373    2.2789 H         1 <0>         0.1409
     58 H22        -5.1632  -11.7879    2.2966 H         1 <0>         0.1351
     59 H23        -3.9692  -13.1295    3.9811 H         1 <0>         0.1331
     60 H24        -2.5349  -12.0206    5.6473 H         1 <0>         0.1360
     61 H25        -2.2888   -9.5707    5.6244 H         1 <0>         0.1471
     62 H26        -1.6255   -6.8871    0.0810 H         1 <0>         0.4209
     63 H27         0.1871   -5.6231   -4.2647 H         1 <0>         0.1504
     64 H28        -1.0793   -4.6018   -6.1114 H         1 <0>         0.1404
     65 H29        -3.5301   -4.8155   -6.1942 H         1 <0>         0.1395
     66 H30        -4.7197   -6.0517   -4.4294 H         1 <0>         0.1421
     67 H31        -3.8767   -6.6787   -1.6386 H         1 <0>         0.3994
@<TRIPOS>BOND
     1    1    2 1
     2    1   38 1
     3    1   39 1
     4    1   40 1
     5    2    3 1
     6    2    4 1
     7    2   41 1
     8    3   42 1
     9    3   43 1
    10    3   44 1
    11    4    5 1
    12    4   45 1
    13    4   46 1
    14    5   10 ar
    15    5    6 ar
    16    6    7 ar
    17    6   47 1
    18    7    8 ar
    19    7   48 1
    20    8    9 ar
    21    8   27 1
    22    9   10 ar
    23    9   11 1
    24   10   49 1
    25   11   17 1
    26   11   12 1
    27   12   13 1
    28   12   50 1
    29   12   51 1
    30   13   14 1
    31   13   52 1
    32   13   53 1
    33   14   15 1
    34   14   54 1
    35   15   16 1
    36   15   17 1
    37   15   18 1
    38   17   55 1
    39   17   56 1
    40   18   19 2
    41   18   20 2
    42   18   21 1
    43   21   26 ar
    44   21   22 ar
    45   22   23 ar
    46   22   57 1
    47   23   24 ar
    48   23   58 1
    49   24   25 ar
    50   24   59 1
    51   25   26 ar
    52   25   60 1
    53   26   61 1
    54   27   28 1
    55   27   62 1
    56   28   29 2
    57   28   30 2
    58   28   31 1
    59   31   36 ar
    60   31   32 ar
    61   32   33 ar
    62   32   63 1
    63   33   34 ar
    64   33   64 1
    65   34   35 ar
    66   34   65 1
    67   35   36 ar
    68   35   66 1
    69   36   37 1
    70   37   67 1
@<TRIPOS>MOLECULE
ZINC59331617
   73    76     0     0     0
SMALL
NO_CHARGES

@<TRIPOS>ATOM
      1 C1          0.1812    1.5740    1.2151 C.3       1 <0>        -0.1860
      2 C2          0.2810    0.0495    1.1335 C.3       1 <0>        -0.0098
      3 N1         -0.8613   -0.4761    0.3739 N.4       1 <0>        -0.2777
      4 C3         -0.7828   -0.0066   -1.0158 C.3       1 <0>        -0.0137
      5 C4         -2.0351   -0.4495   -1.7752 C.3       1 <0>        -0.1733
      6 C5         -0.8322   -1.8736    0.3960 C.ar      1 <0>        -0.2250
      7 C6          0.2587   -2.5494   -0.1200 C.ar      1 <0>        -0.1093
      8 C7          0.2902   -3.9297   -0.1001 C.ar      1 <0>        -0.0808
      9 C8         -0.7750   -4.6396    0.4392 C.ar      1 <0>         0.0008
     10 C9         -1.8685   -3.9581    0.9569 C.ar      1 <0>        -0.0487
     11 C10        -1.8916   -2.5771    0.9387 C.ar      1 <0>        -0.1074
     12 C11        -3.0265   -4.7243    1.5425 C.3       1 <0>        -0.1050
     13 N2         -0.7463   -6.0398    0.4605 N.pl3     1 <0>        -0.0091
     14 N3         -0.4385   -6.7616   -0.5601 N.2       1 <0>        -0.3219
     15 C12        -0.5038   -8.0385   -0.2167 C.ar      1 <0>         0.0279
     16 C13        -0.2926   -9.2753   -0.8515 C.ar      1 <0>        -0.0778
     17 C14        -0.4624  -10.4258   -0.1512 C.ar      1 <0>        -0.0770
     18 C15        -0.8452  -10.4167    1.1966 C.ar      1 <0>         0.0927
     19 C16        -1.0653   -9.2493    1.8690 C.ar      1 <0>        -0.0043
     20 C17        -0.9057   -8.0253    1.1983 C.ar      1 <0>         0.0167
     21 N4         -1.0195   -6.7422    1.5043 N.2       1 <0>        -0.2997
     22 N5         -1.0059  -11.6328    1.8692 N.pl3     1 <0>        -0.6086
     23 C18        -2.1027  -11.8463    2.6228 C.2       1 <0>         0.5067
     24 S1         -3.2392  -10.5873    2.8563 S.2       1 <0>        -0.4863
     25 N6         -2.3049  -13.0508    3.1926 N.am      1 <0>        -0.6418
     26 C19        -3.4017  -13.2643    3.9462 C.2       1 <0>         0.5382
     27 O1         -4.2086  -12.3704    4.1120 O.2       1 <0>        -0.4045
     28 C20        -3.6230  -14.5827    4.5699 C.ar      1 <0>        -0.1777
     29 C21        -2.6935  -15.6102    4.3852 C.ar      1 <0>        -0.0462
     30 C22        -2.9038  -16.8393    4.9690 C.ar      1 <0>        -0.2187
     31 C23        -4.0386  -17.0591    5.7412 C.ar      1 <0>         0.1658
     32 C24        -4.9657  -16.0401    5.9270 C.ar      1 <0>        -0.1587
     33 C25        -4.7598  -14.8062    5.3518 C.ar      1 <0>        -0.0106
     34 O2         -4.2421  -18.2720    6.3149 O.3       1 <0>        -0.3040
     35 C26        -3.1992  -19.2389    6.1754 C.3       1 <0>         0.0743
     36 C27        -3.2785  -20.2441    7.3262 C.3       1 <0>        -0.1508
     37 C28        -3.3604  -19.9745    4.8436 C.3       1 <0>        -0.1827
     38 C29        -0.2340  -11.7461   -0.8409 C.3       1 <0>        -0.1113
     39 H1          1.0287    1.9640    1.7787 H         1 <0>         0.0937
     40 H2          0.1902    1.9931    0.2089 H         1 <0>         0.0733
     41 H3         -0.7465    1.8511    1.7157 H         1 <0>         0.0729
     42 H4          1.2087   -0.2276    0.6328 H         1 <0>         0.1158
     43 H5          0.2720   -0.3696    2.1397 H         1 <0>         0.1213
     44 H6         -0.7159    1.0813   -1.0286 H         1 <0>         0.1083
     45 H7          0.1006   -0.4305   -1.4933 H         1 <0>         0.1159
     46 H8         -2.1020   -1.5374   -1.7625 H         1 <0>         0.0884
     47 H9         -2.9185   -0.0255   -1.2978 H         1 <0>         0.0664
     48 H10        -1.9769   -0.1011   -2.8064 H         1 <0>         0.0865
     49 H11         1.0866   -1.9969   -0.5392 H         1 <0>         0.1052
     50 H12         1.1420   -4.4569   -0.5038 H         1 <0>         0.1126
     51 H13        -2.7399   -2.0464    1.3451 H         1 <0>         0.1088
     52 H14        -2.8920   -4.8187    2.6200 H         1 <0>         0.0710
     53 H15        -3.9553   -4.1917    1.3377 H         1 <0>         0.0561
     54 H16        -3.0700   -5.7165    1.0934 H         1 <0>         0.0596
     55 H17         0.0025   -9.3098   -1.8898 H         1 <0>         0.1296
     56 H18        -1.3600   -9.2666    2.9078 H         1 <0>         0.1478
     57 H19        -0.3280  -12.3224    1.7931 H         1 <0>         0.4049
     58 H20        -1.6610  -13.7641    3.0603 H         1 <0>         0.4060
     59 H21        -1.8118  -15.4403    3.7851 H         1 <0>         0.1248
     60 H22        -2.1863  -17.6338    4.8265 H         1 <0>         0.1381
     61 H23        -5.8464  -16.2152    6.5271 H         1 <0>         0.1420
     62 H24        -5.4779  -14.0134    5.5009 H         1 <0>         0.1482
     63 H25        -2.2323  -18.7361    6.1981 H         1 <0>         0.0764
     64 H26        -4.2453  -20.7468    7.3035 H         1 <0>         0.0691
     65 H27        -2.4829  -20.9816    7.2198 H         1 <0>         0.0795
     66 H28        -3.1636  -19.7200    8.2750 H         1 <0>         0.0667
     67 H29        -3.3040  -19.2584    4.0238 H         1 <0>         0.0635
     68 H30        -2.5649  -20.7120    4.7373 H         1 <0>         0.0750
     69 H31        -4.3273  -20.4772    4.8210 H         1 <0>         0.0701
     70 H32         0.8094  -12.0398   -0.7271 H         1 <0>         0.0700
     71 H33        -0.8760  -12.5053   -0.3941 H         1 <0>         0.0581
     72 H34        -0.4704  -11.6482   -1.9005 H         1 <0>         0.0722
     73 H35        -1.7206   -0.1509    0.7908 H         1 <0>         0.4075
@<TRIPOS>BOND
     1    1    2 1
     2    1   39 1
     3    1   40 1
     4    1   41 1
     5    2    3 1
     6    2   42 1
     7    2   43 1
     8    3    4 1
     9    3    6 1
    10    3   73 1
    11    4    5 1
    12    4   44 1
    13    4   45 1
    14    5   46 1
    15    5   47 1
    16    5   48 1
    17    6   11 ar
    18    6    7 ar
    19    7    8 ar
    20    7   49 1
    21    8    9 ar
    22    8   50 1
    23    9   10 ar
    24    9   13 1
    25   10   11 ar
    26   10   12 1
    27   11   51 1
    28   12   52 1
    29   12   53 1
    30   12   54 1
    31   13   21 1
    32   13   14 1
    33   14   15 2
    34   15   20 ar
    35   15   16 ar
    36   16   17 ar
    37   16   55 1
    38   17   18 ar
    39   17   38 1
    40   18   19 ar
    41   18   22 1
    42   19   20 ar
    43   19   56 1
    44   20   21 2
    45   22   23 1
    46   22   57 1
    47   23   24 2
    48   23   25 1
    49   25   26 am
    50   25   58 1
    51   26   27 2
    52   26   28 1
    53   28   33 ar
    54   28   29 ar
    55   29   30 ar
    56   29   59 1
    57   30   31 ar
    58   30   60 1
    59   31   32 ar
    60   31   34 1
    61   32   33 ar
    62   32   61 1
    63   33   62 1
    64   34   35 1
    65   35   36 1
    66   35   37 1
    67   35   63 1
    68   36   64 1
    69   36   65 1
    70   36   66 1
    71   37   67 1
    72   37   68 1
    73   37   69 1
    74   38   70 1
    75   38   71 1
    76   38   72 1
@<TRIPOS>MOLECULE
ZINC08952408
   63    65     0     0     0
SMALL
USER_CHARGES
2-(5-amino-1,3,4-thiadiazol-2-yl)-N-[[3-chloro-5-ethoxy-4-[2-(3-ethyl-5-methyl-phenoxy)ethoxy]phenyl]methyleneamino]acetamide
@<TRIPOS>ATOM
      1 C1        -12.9848   -1.8952    0.3671 C.3       1 <0>        -0.1470
      2 C2        -12.1542   -2.6195    1.4285 C.3       1 <0>        -0.0865
      3 C3        -11.0907   -3.4479    0.7550 C.ar      1 <0>        -0.0380
      4 C4        -11.3566   -4.7579    0.4005 C.ar      1 <0>        -0.1582
      5 C5        -10.3832   -5.5203   -0.2179 C.ar      1 <0>        -0.0436
      6 C6         -9.1434   -4.9734   -0.4876 C.ar      1 <0>        -0.2173
      7 C7         -8.8724   -3.6613   -0.1282 C.ar      1 <0>         0.1398
      8 C8         -9.8512   -2.8981    0.4919 C.ar      1 <0>        -0.1555
      9 O1         -7.6521   -3.1226   -0.3881 O.3       1 <0>        -0.3027
     10 C9         -6.6934   -3.9667   -1.0287 C.3       1 <0>         0.0648
     11 C10        -5.3906   -3.1920   -1.2375 C.3       1 <0>         0.0682
     12 O2         -4.8205   -2.8680    0.0322 O.3       1 <0>        -0.3045
     13 C11        -3.6510   -2.1746    0.0247 C.ar      1 <0>         0.0870
     14 C12        -2.4376   -2.8587    0.0099 C.ar      1 <0>         0.1259
     15 C13        -1.2475   -2.1559   -0.0035 C.ar      1 <0>        -0.1690
     16 C14        -1.2645   -0.7585    0.0101 C.ar      1 <0>        -0.0063
     17 C15        -2.4845   -0.0783    0.0254 C.ar      1 <0>        -0.0966
     18 C16        -3.6690   -0.7867    0.0324 C.ar      1 <0>        -0.0217
     19 Cl1        -5.1845    0.0598    0.0514 Cl        1 <0>        -0.0324
     20 C17         0.0021   -0.0041    0.0020 C.2       1 <0>         0.1073
     21 N1         -0.0155    1.2937    0.0092 N.2       1 <0>        -0.2149
     22 N2          1.1881    2.0106    0.0015 N.am      1 <0>        -0.5816
     23 C18         1.1698    3.3582    0.0089 C.2       1 <0>         0.5331
     24 O3          0.1111    3.9504    0.0222 O.2       1 <0>        -0.4813
     25 C19         2.4645    4.1294    0.0007 C.3       1 <0>        -0.0290
     26 C20         2.1691    5.6071    0.0115 C.2       1 <0>         0.0435
     27 N3          2.0132    6.4319    1.0269 N.2       1 <0>        -0.2215
     28 N4          1.7669    7.6583    0.8652 N.2       1 <0>        -0.3556
     29 C21         1.6494    8.1944   -0.3423 C.2       1 <0>         0.3425
     30 S1          1.9377    6.7441   -1.3522 S.3       1 <0>        -0.0332
     31 N5          1.3851    9.5038   -0.7157 N.pl3     1 <0>        -0.7823
     32 O4         -2.4240   -4.2186    0.0029 O.3       1 <0>        -0.2995
     33 C22        -1.1444   -4.8545   -0.0122 C.3       1 <0>         0.0500
     34 C23        -1.3297   -6.3733   -0.0182 C.3       1 <0>        -0.1531
     35 C24       -10.6765   -6.9473   -0.6033 C.3       1 <0>        -0.1167
     36 H1        -13.7541   -1.2960    0.8542 H         1 <0>         0.0593
     37 H2        -12.3363   -1.2457   -0.2208 H         1 <0>         0.0565
     38 H3        -13.4557   -2.6280   -0.2882 H         1 <0>         0.0560
     39 H4        -12.8027   -3.2691    2.0164 H         1 <0>         0.0742
     40 H5        -11.6834   -1.8868    2.0838 H         1 <0>         0.0741
     41 H6        -12.3265   -5.1859    0.6067 H         1 <0>         0.1217
     42 H7         -8.3846   -5.5681   -0.9744 H         1 <0>         0.1254
     43 H8         -9.6440   -1.8750    0.7689 H         1 <0>         0.1284
     44 H9         -7.0822   -4.2906   -1.9942 H         1 <0>         0.0818
     45 H10        -6.5015   -4.8385   -0.4033 H         1 <0>         0.0750
     46 H11        -5.5979   -2.2741   -1.7876 H         1 <0>         0.0678
     47 H12        -4.6902   -3.8051   -1.8045 H         1 <0>         0.0787
     48 H13        -0.3064   -2.6855   -0.0194 H         1 <0>         0.1454
     49 H14        -2.5008    1.0016    0.0320 H         1 <0>         0.1531
     50 H15         0.9446   -0.5313   -0.0098 H         1 <0>         0.1284
     51 H16         2.0346    1.5371   -0.0091 H         1 <0>         0.3905
     52 H17         3.0481    3.8691    0.8838 H         1 <0>         0.1388
     53 H18         3.0311    3.8787   -0.8961 H         1 <0>         0.1283
     54 H19         1.2550   10.1847   -0.0372 H         1 <0>         0.4237
     55 H20         1.3304    9.7387   -1.6552 H         1 <0>         0.4242
     56 H21        -0.5987   -4.5516   -0.9058 H         1 <0>         0.0649
     57 H22        -0.5821   -4.5606    0.8740 H         1 <0>         0.0661
     58 H23        -0.3537   -6.8583   -0.0298 H         1 <0>         0.0809
     59 H24        -1.8754   -6.6762    0.8754 H         1 <0>         0.0686
     60 H25        -1.8921   -6.6672   -0.9045 H         1 <0>         0.0669
     61 H26       -11.0824   -6.9745   -1.6146 H         1 <0>         0.0723
     62 H27        -9.7564   -7.5304   -0.5653 H         1 <0>         0.0662
     63 H28       -11.4030   -7.3693    0.0912 H         1 <0>         0.0687
@<TRIPOS>BOND
     1    1    2 1
     2    1   36 1
     3    1   37 1
     4    1   38 1
     5    2    3 1
     6    2   39 1
     7    2   40 1
     8    3    8 ar
     9    3    4 ar
    10    4    5 ar
    11    4   41 1
    12    5    6 ar
    13    5   35 1
    14    6    7 ar
    15    6   42 1
    16    7    8 ar
    17    7    9 1
    18    8   43 1
    19    9   10 1
    20   10   11 1
    21   10   44 1
    22   10   45 1
    23   11   12 1
    24   11   46 1
    25   11   47 1
    26   12   13 1
    27   13   18 ar
    28   13   14 ar
    29   14   15 ar
    30   14   32 1
    31   15   16 ar
    32   15   48 1
    33   16   17 ar
    34   16   20 1
    35   17   18 ar
    36   17   49 1
    37   18   19 1
    38   20   21 2
    39   20   50 1
    40   21   22 1
    41   22   23 am
    42   22   51 1
    43   23   24 2
    44   23   25 1
    45   25   26 1
    46   25   52 1
    47   25   53 1
    48   26   30 1
    49   26   27 2
    50   27   28 1
    51   28   29 2
    52   29   30 1
    53   29   31 1
    54   31   54 1
    55   31   55 1
    56   32   33 1
    57   33   34 1
    58   33   56 1
    59   33   57 1
    60   34   58 1
    61   34   59 1
    62   34   60 1
    63   35   61 1
    64   35   62 1
    65   35   63 1
@<TRIPOS>MOLECULE
ZINC13133952
   71    76     0     0     0
SMALL
USER_CHARGES
N'-(o-tolyl)-6-[[[(2R)-2-phenyl-2-(2-phenyl-1H-indol-3-yl)ethyl]amino]methyl]-1,3,5-triazine-2,4-diamine
@<TRIPOS>ATOM
      1 C1          7.4392   -9.5210   -2.4360 C.3       1 <0>        -0.1166
      2 C2          6.9702  -10.5978   -1.4917 C.ar      1 <0>        -0.1222
      3 C3          7.1406  -11.9284   -1.8209 C.ar      1 <0>        -0.0984
      4 C4          6.7110  -12.9168   -0.9548 C.ar      1 <0>        -0.1410
      5 C5          6.1095  -12.5772    0.2434 C.ar      1 <0>        -0.1048
      6 C6          5.9414  -11.2488    0.5812 C.ar      1 <0>        -0.1312
      7 C7          6.3667  -10.2533   -0.2893 C.ar      1 <0>         0.1688
      8 N1          6.1926   -8.9072    0.0470 N.pl3     1 <0>        -0.6344
      9 C8          5.2311   -8.5446    0.9701 C.ar      1 <0>         0.6273
     10 N2          5.1442   -7.2813    1.3808 N.ar      1 <0>        -0.6324
     11 C9          4.2245   -6.9335    2.2635 C.ar      1 <0>         0.4405
     12 N3          3.3909   -7.8385    2.7461 N.ar      1 <0>        -0.6194
     13 C10         3.4680   -9.1025    2.3362 C.ar      1 <0>         0.6273
     14 N4          4.3915   -9.4561    1.4488 N.ar      1 <0>        -0.6439
     15 N5          2.5936  -10.0457    2.8365 N.pl3     1 <0>        -0.8290
     16 C11         4.1297   -5.5023    2.7257 C.3       1 <0>         0.1186
     17 N6          3.2142   -4.7633    1.8461 N.3       1 <0>        -0.6594
     18 C12         3.0968   -3.3609    2.2673 C.3       1 <0>         0.0645
     19 C13         2.1374   -2.6253    1.3296 C.3       1 <0>         0.0300
     20 H1          1.1691   -3.1457    1.2898 H         1 <0>         0.0973
     21 C14         2.7276   -2.5772   -0.0562 C.ar      1 <0>        -0.0746
     22 C15         3.7252   -1.6669   -0.3513 C.ar      1 <0>        -0.1254
     23 C16         4.2697   -1.6258   -1.6213 C.ar      1 <0>        -0.1199
     24 C17         3.8099   -2.4885   -2.5987 C.ar      1 <0>        -0.1226
     25 C18         2.8090   -3.3955   -2.3048 C.ar      1 <0>        -0.1198
     26 C19         2.2675   -3.4395   -1.0337 C.ar      1 <0>        -0.1135
     27 C20         1.9213   -1.2212    1.8325 C.2       1 <0>        -0.1436
     28 C21         2.9581   -0.2681    2.2246 C.ar      1 <0>        -0.0962
     29 C22         4.3545   -0.3191    2.2655 C.ar      1 <0>        -0.0805
     30 C23         5.0607    0.7690    2.6933 C.ar      1 <0>        -0.1443
     31 C24         4.4028    1.9265    3.0874 C.ar      1 <0>        -0.0982
     32 C25         3.0273    1.9989    3.0556 C.ar      1 <0>        -0.1275
     33 C26         2.2868    0.9032    2.6240 C.ar      1 <0>         0.0975
     34 N7          0.9361    0.6730    2.4827 N.pl3     1 <0>        -0.5989
     35 H2          0.2139    1.4617    2.7402 H         1 <0>         0.4414
     36 C27         0.7279   -0.6016    2.0083 C.2       1 <0>         0.1416
     37 C28        -0.5945   -1.2037    1.7328 C.ar      1 <0>        -0.0354
     38 C29        -0.8029   -1.9304    0.5599 C.ar      1 <0>        -0.0927
     39 C30        -2.0376   -2.4936    0.3111 C.ar      1 <0>        -0.1161
     40 C31        -3.0709   -2.3302    1.2166 C.ar      1 <0>        -0.1108
     41 C32        -2.8723   -1.6064    2.3788 C.ar      1 <0>        -0.1180
     42 C33        -1.6409   -1.0426    2.6420 C.ar      1 <0>        -0.1057
     43 H3          7.8873   -9.9846   -3.3272 H         1 <0>         0.0715
     44 H4          8.1894   -8.8933   -1.9328 H         1 <0>         0.0666
     45 H5          6.5833   -8.8992   -2.7372 H         1 <0>         0.0681
     46 H6          7.6102  -12.1969   -2.7556 H         1 <0>         0.1239
     47 H7          6.8457  -13.9565   -1.2144 H         1 <0>         0.1203
     48 H8          5.7751  -13.3517    0.9177 H         1 <0>         0.1215
     49 H9          5.4760  -10.9843    1.5192 H         1 <0>         0.1542
     50 H10         6.8213   -8.1370   -0.4236 H         1 <0>         0.4501
     51 H11         2.6580  -11.0901    2.4972 H         1 <0>         0.4389
     52 H12         1.8322   -9.7531    3.5746 H         1 <0>         0.4423
     53 H13         3.7492   -5.4746    3.7574 H         1 <0>         0.1028
     54 H14         5.1266   -5.0387    2.6901 H         1 <0>         0.0636
     55 H15         3.5947   -4.7910    0.8144 H         1 <0>         0.3456
     56 H16         2.7090   -3.3182    3.2958 H         1 <0>         0.0808
     57 H17         4.0865   -2.8823    2.2284 H         1 <0>         0.0406
     58 H18         4.0816   -0.9902    0.4112 H         1 <0>         0.1384
     59 H19         5.0520   -0.9174   -1.8508 H         1 <0>         0.1177
     60 H20         4.2329   -2.4540   -3.5918 H         1 <0>         0.1174
     61 H21         2.4497   -4.0694   -3.0685 H         1 <0>         0.1184
     62 H22         1.4853   -4.1479   -0.8042 H         1 <0>         0.1212
     63 H23         4.8732   -1.2159    1.9603 H         1 <0>         0.1240
     64 H24         6.1395    0.7291    2.7244 H         1 <0>         0.1220
     65 H25         4.9752    2.7788    3.4226 H         1 <0>         0.1245
     66 H26         2.5256    2.9054    3.3607 H         1 <0>         0.1195
     67 H27         0.0016   -2.0549   -0.1498 H         1 <0>         0.1296
     68 H28        -2.1992   -3.0594   -0.5945 H         1 <0>         0.1269
     69 H29        -4.0366   -2.7699    1.0154 H         1 <0>         0.1246
     70 H30        -3.6828   -1.4828    3.0818 H         1 <0>         0.1254
     71 H31        -1.4870   -0.4781    3.5498 H         1 <0>         0.1208
@<TRIPOS>BOND
     1    1    2 1
     2    1   43 1
     3    1   44 1
     4    1   45 1
     5    2    7 ar
     6    2    3 ar
     7    3    4 ar
     8    3   46 1
     9    4    5 ar
    10    4   47 1
    11    5    6 ar
    12    5   48 1
    13    6    7 ar
    14    6   49 1
    15    7    8 1
    16    8    9 1
    17    8   50 1
    18    9   14 ar
    19    9   10 ar
    20   10   11 ar
    21   11   12 ar
    22   11   16 1
    23   12   13 ar
    24   13   14 ar
    25   13   15 1
    26   15   51 1
    27   15   52 1
    28   16   17 1
    29   16   53 1
    30   16   54 1
    31   17   18 1
    32   17   55 1
    33   18   19 1
    34   18   56 1
    35   18   57 1
    36   19   20 1
    37   19   21 1
    38   19   27 1
    39   21   26 ar
    40   21   22 ar
    41   22   23 ar
    42   22   58 1
    43   23   24 ar
    44   23   59 1
    45   24   25 ar
    46   24   60 1
    47   25   26 ar
    48   25   61 1
    49   26   62 1
    50   27   36 2
    51   27   28 1
    52   28   33 ar
    53   28   29 ar
    54   29   30 ar
    55   29   63 1
    56   30   31 ar
    57   30   64 1
    58   31   32 ar
    59   31   65 1
    60   32   33 ar
    61   32   66 1
    62   33   34 1
    63   34   35 1
    64   34   36 1
    65   36   37 1
    66   37   42 ar
    67   37   38 ar
    68   38   39 ar
    69   38   67 1
    70   39   40 ar
    71   39   68 1
    72   40   41 ar
    73   40   69 1
    74   41   42 ar
    75   41   70 1
    76   42   71 1
@<TRIPOS>MOLECULE
ZINC36485066
   72    74     0     0     0
SMALL
USER_CHARGES

@<TRIPOS>ATOM
      1 C1          1.3420    0.1293    2.6804 C.3       1 <0>        -0.1242
      2 C2          0.1328   -0.4962    2.0342 C.ar      1 <0>        -0.0551
      3 C3          0.2634   -1.1801    0.8397 C.ar      1 <0>        -0.1199
      4 C4         -0.8456   -1.7538    0.2470 C.ar      1 <0>        -0.0991
      5 C5         -2.0854   -1.6443    0.8489 C.ar      1 <0>        -0.1214
      6 C6         -2.2158   -0.9614    2.0435 C.ar      1 <0>        -0.0989
      7 C7         -1.1057   -0.3912    2.6385 C.ar      1 <0>        -0.1171
      8 C8         -1.2470    0.3488    3.9437 C.3       1 <0>         0.1664
      9 H1         -0.6905    1.2847    3.8928 H         1 <0>         0.1392
     10 C9         -2.7027    0.6432    4.1992 C.2       1 <0>         0.5054
     11 O1         -3.2313    0.2497    5.2174 O.2       1 <0>        -0.5109
     12 N1         -3.4172    1.3438    3.2963 N.am      1 <0>        -0.7134
     13 C10        -4.7999    1.7258    3.5934 C.3       1 <0>         0.1778
     14 C11        -5.6458    0.4662    3.7908 C.3       1 <0>        -0.1629
     15 C12        -4.8332    2.5678    4.8704 C.3       1 <0>        -0.1878
     16 C13        -5.3648    2.5422    2.4293 C.3       1 <0>        -0.1159
     17 C14        -4.2761    3.4649    1.8778 C.3       1 <0>        -0.0711
     18 C15        -3.5111    2.7437    0.7663 C.3       1 <0>        -0.1511
     19 C16        -4.9199    4.7331    1.3138 C.3       1 <0>        -0.1404
     20 C17        -3.3086    3.8408    3.0019 C.3       1 <0>        -0.1996
     21 N2         -0.7171   -0.4759    5.0324 N.am      1 <0>        -0.5421
     22 C18        -1.3182   -1.7011    5.3378 C.ar      1 <0>         0.1561
     23 C19        -2.0748   -1.8359    6.4950 C.ar      1 <0>        -0.0760
     24 C20        -2.6673   -3.0468    6.7944 C.ar      1 <0>        -0.0984
     25 C21        -2.5084   -4.1254    5.9436 C.ar      1 <0>        -0.1063
     26 C22        -1.7554   -3.9951    4.7899 C.ar      1 <0>        -0.0298
     27 C23        -1.1646   -2.7837    4.4821 C.ar      1 <0>        -0.1210
     28 Cl1        -1.5580   -5.3519    3.7251 Cl        1 <0>        -0.0614
     29 C24         0.3496   -0.0537    5.7397 C.2       1 <0>         0.5727
     30 O2          0.8520    1.0265    5.4960 O.2       1 <0>        -0.4991
     31 C25         0.9078   -0.9021    6.8097 C.ar      1 <0>        -0.1553
     32 C26         0.5969   -2.2643    6.8604 C.ar      1 <0>        -0.1000
     33 C27         1.1200   -3.0533    7.8611 C.ar      1 <0>        -0.1199
     34 C28         1.9546   -2.5045    8.8211 C.ar      1 <0>        -0.1000
     35 C29         2.2714   -1.1574    8.7846 C.ar      1 <0>         0.0688
     36 C30         1.7561   -0.3486    7.7760 C.ar      1 <0>         0.1473
     37 O3          2.0692    0.9716    7.7332 O.3       1 <0>        -0.4705
     38 O4          3.0909   -0.6256    9.7307 O.3       1 <0>        -0.4884
     39 H2          1.7551   -0.5573    3.4193 H         1 <0>         0.0686
     40 H3          2.0934    0.3388    1.9190 H         1 <0>         0.0691
     41 H4          1.0522    1.0589    3.1702 H         1 <0>         0.0798
     42 H5          1.2319   -1.2656    0.3695 H         1 <0>         0.1263
     43 H6         -0.7437   -2.2873   -0.6865 H         1 <0>         0.1253
     44 H7         -2.9521   -2.0920    0.3854 H         1 <0>         0.1245
     45 H8         -3.1844   -0.8756    2.5135 H         1 <0>         0.1247
     46 H9         -3.0158    1.5950    2.4497 H         1 <0>         0.4078
     47 H10        -5.2990   -0.0695    4.6745 H         1 <0>         0.0796
     48 H11        -6.6906    0.7473    3.9231 H         1 <0>         0.0628
     49 H12        -5.5504   -0.1764    2.9156 H         1 <0>         0.0526
     50 H13        -4.1856    3.4362    4.7500 H         1 <0>         0.0813
     51 H14        -5.8540    2.8994    5.0605 H         1 <0>         0.0613
     52 H15        -4.4838    1.9677    5.7106 H         1 <0>         0.0737
     53 H16        -5.7023    1.8676    1.6424 H         1 <0>         0.0716
     54 H17        -6.2055    3.1411    2.7797 H         1 <0>         0.0813
     55 H18        -4.1691    2.0227    0.2812 H         1 <0>         0.0619
     56 H19        -3.1651    3.4713    0.0322 H         1 <0>         0.0648
     57 H20        -2.6541    2.2232    1.1938 H         1 <0>         0.0526
     58 H21        -5.4649    5.2470    2.1057 H         1 <0>         0.0558
     59 H22        -4.1443    5.3905    0.9209 H         1 <0>         0.0562
     60 H23        -5.6092    4.4654    0.5130 H         1 <0>         0.0554
     61 H24        -2.9407    2.9344    3.4828 H         1 <0>         0.1004
     62 H25        -2.4689    4.3985    2.5872 H         1 <0>         0.0495
     63 H26        -3.8268    4.4571    3.7364 H         1 <0>         0.0642
     64 H27        -2.1993   -0.9943    7.1603 H         1 <0>         0.1350
     65 H28        -3.2553   -3.1517    7.6942 H         1 <0>         0.1385
     66 H29        -2.9725   -5.0714    6.1803 H         1 <0>         0.1375
     67 H30        -0.5809   -2.6807    3.5793 H         1 <0>         0.1388
     68 H31        -0.0537   -2.6978    6.1153 H         1 <0>         0.1583
     69 H32         0.8780   -4.1052    7.8976 H         1 <0>         0.1355
     70 H33         2.3598   -3.1307    9.6021 H         1 <0>         0.1384
     71 H34         1.4613    1.5363    8.2298 H         1 <0>         0.3952
     72 H35         4.0290   -0.6505    9.4974 H         1 <0>         0.3944
@<TRIPOS>BOND
     1    1    2 1
     2    1   39 1
     3    1   40 1
     4    1   41 1
     5    2    7 ar
     6    2    3 ar
     7    3    4 ar
     8    3   42 1
     9    4    5 ar
    10    4   43 1
    11    5    6 ar
    12    5   44 1
    13    6    7 ar
    14    6   45 1
    15    7    8 1
    16    8    9 1
    17    8   10 1
    18    8   21 1
    19   10   11 2
    20   10   12 am
    21   12   13 1
    22   12   46 1
    23   13   14 1
    24   13   15 1
    25   13   16 1
    26   14   47 1
    27   14   48 1
    28   14   49 1
    29   15   50 1
    30   15   51 1
    31   15   52 1
    32   16   17 1
    33   16   53 1
    34   16   54 1
    35   17   18 1
    36   17   19 1
    37   17   20 1
    38   18   55 1
    39   18   56 1
    40   18   57 1
    41   19   58 1
    42   19   59 1
    43   19   60 1
    44   20   61 1
    45   20   62 1
    46   20   63 1
    47   21   22 1
    48   21   29 am
    49   22   27 ar
    50   22   23 ar
    51   23   24 ar
    52   23   64 1
    53   24   25 ar
    54   24   65 1
    55   25   26 ar
    56   25   66 1
    57   26   27 ar
    58   26   28 1
    59   27   67 1
    60   29   30 2
    61   29   31 1
    62   31   36 ar
    63   31   32 ar
    64   32   33 ar
    65   32   68 1
    66   33   34 ar
    67   33   69 1
    68   34   35 ar
    69   34   70 1
    70   35   36 ar
    71   35   38 1
    72   36   37 1
    73   37   71 1
    74   38   72 1
@<TRIPOS>MOLECULE
ZINC36548608
   60    62     0     0     0
SMALL
USER_CHARGES

@<TRIPOS>ATOM
      1 C1          2.6602   -4.9970    3.7568 C.3       1 <0>        -0.1533
      2 C2          1.8261   -5.6419    2.6480 C.3       1 <0>        -0.1210
      3 C3          0.4595   -4.9579    2.5745 C.3       1 <0>        -0.1314
      4 C4         -0.3745   -5.6028    1.4657 C.3       1 <0>         0.1266
      5 N1         -1.6831   -4.9479    1.3953 N.am      1 <0>        -0.7062
      6 C5         -2.5913   -5.3529    0.4855 C.2       1 <0>         0.5176
      7 O1         -2.3253   -6.2595   -0.2748 O.2       1 <0>        -0.5218
      8 C6         -3.9374   -4.6792    0.4131 C.3       1 <0>         0.1805
      9 H1         -4.2259   -4.3362    1.4067 H         1 <0>         0.1327
     10 C7         -3.8595   -3.5003   -0.5224 C.ar      1 <0>        -0.1681
     11 C8         -5.0205   -2.9573   -1.0517 C.ar      1 <0>         0.1643
     12 C9         -4.9488   -1.8724   -1.9126 C.ar      1 <0>        -0.1793
     13 C10        -3.7161   -1.3304   -2.2437 C.ar      1 <0>         0.1529
     14 C11        -2.5551   -1.8728   -1.7137 C.ar      1 <0>        -0.1781
     15 C12        -2.6271   -2.9550   -0.8494 C.ar      1 <0>         0.1555
     16 O2         -1.4897   -3.4836   -0.3263 O.3       1 <0>        -0.4803
     17 O3         -3.6457   -0.2678   -3.0880 O.3       1 <0>        -0.4929
     18 O4         -6.2285   -3.4885   -0.7272 O.3       1 <0>        -0.4892
     19 N2         -4.9340   -5.6314   -0.0832 N.am      1 <0>        -0.5332
     20 C13        -4.7356   -6.2764   -1.3088 C.ar      1 <0>         0.1428
     21 C14        -5.0071   -5.6112   -2.4972 C.ar      1 <0>        -0.1122
     22 C15        -4.8098   -6.2505   -3.7055 C.ar      1 <0>        -0.1162
     23 C16        -4.3429   -7.5519   -3.7334 C.ar      1 <0>        -0.0965
     24 C17        -4.0718   -8.2180   -2.5525 C.ar      1 <0>        -0.1091
     25 C18        -4.2610   -7.5822   -1.3398 C.ar      1 <0>         0.0084
     26 Cl1        -3.9132   -8.4162    0.1425 Cl        1 <0>        -0.0507
     27 C19        -6.0419   -5.8861    0.6408 C.2       1 <0>         0.5912
     28 O5         -6.2652   -5.2519    1.6536 O.2       1 <0>        -0.5168
     29 C20        -6.9853   -6.9366    0.2034 C.ar      1 <0>        -0.1263
     30 C21        -7.1344   -7.2238   -1.1547 C.ar      1 <0>        -0.0496
     31 C22        -8.0165   -8.2052   -1.5561 C.ar      1 <0>        -0.1205
     32 C23        -8.7532   -8.9043   -0.6161 C.ar      1 <0>        -0.0298
     33 C24        -8.6106   -8.6244    0.7312 C.ar      1 <0>        -0.0558
     34 C25        -7.7268   -7.6497    1.1466 C.ar      1 <0>         0.0007
     35 N3         -9.4034   -9.3765    1.7296 N.pl3     1 <0>         0.0335
     36 O6        -10.1745  -10.2343    1.3673 O.2       1 <0>        -0.1521
     37 O7         -9.2798   -9.1330    2.9073 O.3       1 <0>        -0.1526
     38 H2          3.6338   -5.4843    3.8092 H         1 <0>         0.0561
     39 H3          2.7954   -3.9374    3.5401 H         1 <0>         0.0546
     40 H4          2.1455   -5.1100    4.7110 H         1 <0>         0.0544
     41 H5          2.3408   -5.5289    1.6938 H         1 <0>         0.0644
     42 H6          1.6909   -6.7015    2.8646 H         1 <0>         0.0638
     43 H7         -0.0551   -5.0709    3.5287 H         1 <0>         0.0677
     44 H8          0.5947   -3.8983    2.3578 H         1 <0>         0.0719
     45 H9          0.1401   -5.4898    0.5115 H         1 <0>         0.0653
     46 H10        -0.5098   -6.6624    1.6823 H         1 <0>         0.0652
     47 H11        -1.8959   -4.2228    2.0034 H         1 <0>         0.4017
     48 H12        -5.8529   -1.4500   -2.3254 H         1 <0>         0.1435
     49 H13        -1.5950   -1.4509   -1.9719 H         1 <0>         0.1420
     50 H14        -1.0997   -4.1869   -0.8633 H         1 <0>         0.3961
     51 H15        -3.6826    0.5904   -2.6441 H         1 <0>         0.3991
     52 H16        -6.6025   -3.1420    0.0944 H         1 <0>         0.3993
     53 H17        -5.3725   -4.5951   -2.4766 H         1 <0>         0.1437
     54 H18        -5.0209   -5.7334   -4.6299 H         1 <0>         0.1349
     55 H19        -4.1900   -8.0493   -4.6798 H         1 <0>         0.1365
     56 H20        -3.7076   -9.2344   -2.5777 H         1 <0>         0.1372
     57 H21        -6.5606   -6.6784   -1.8894 H         1 <0>         0.1632
     58 H22        -8.1328   -8.4283   -2.6064 H         1 <0>         0.1544
     59 H23        -9.4428   -9.6715   -0.9357 H         1 <0>         0.1594
     60 H24        -7.6125   -7.4358    2.1990 H         1 <0>         0.1619
@<TRIPOS>BOND
     1    1    2 1
     2    1   38 1
     3    1   39 1
     4    1   40 1
     5    2    3 1
     6    2   41 1
     7    2   42 1
     8    3    4 1
     9    3   43 1
    10    3   44 1
    11    4    5 1
    12    4   45 1
    13    4   46 1
    14    5    6 am
    15    5   47 1
    16    6    7 2
    17    6    8 1
    18    8    9 1
    19    8   10 1
    20    8   19 1
    21   10   15 ar
    22   10   11 ar
    23   11   12 ar
    24   11   18 1
    25   12   13 ar
    26   12   48 1
    27   13   14 ar
    28   13   17 1
    29   14   15 ar
    30   14   49 1
    31   15   16 1
    32   16   50 1
    33   17   51 1
    34   18   52 1
    35   19   20 1
    36   19   27 am
    37   20   25 ar
    38   20   21 ar
    39   21   22 ar
    40   21   53 1
    41   22   23 ar
    42   22   54 1
    43   23   24 ar
    44   23   55 1
    45   24   25 ar
    46   24   56 1
    47   25   26 1
    48   27   28 2
    49   27   29 1
    50   29   34 ar
    51   29   30 ar
    52   30   31 ar
    53   30   57 1
    54   31   32 ar
    55   31   58 1
    56   32   33 ar
    57   32   59 1
    58   33   34 ar
    59   33   35 1
    60   34   60 1
    61   35   36 2
    62   35   37 1
@<TRIPOS>MOLECULE
ZINC59005915
   68    70     0     0     0
SMALL
USER_CHARGES

@<TRIPOS>ATOM
      1 C1         -0.3725    0.5462    3.8862 C.3       1 <0>        -0.1538
      2 C2         -0.2886   -0.8086    3.1801 C.3       1 <0>        -0.1191
      3 C3         -1.6764   -1.2065    2.6736 C.3       1 <0>        -0.1053
      4 C4         -1.5924   -2.5613    1.9675 C.3       1 <0>        -0.0994
      5 S1         -3.2378   -3.0331    1.3670 S.3       1 <0>        -0.1308
      6 C5         -2.9768   -4.5924    0.5892 C.ar      1 <0>        -0.1135
      7 C6         -1.7079   -5.1542    0.5644 C.ar      1 <0>        -0.1125
      8 C7         -1.5059   -6.3775   -0.0459 C.ar      1 <0>        -0.1170
      9 C8         -2.5650   -7.0451   -0.6335 C.ar      1 <0>        -0.0998
     10 C9         -3.8324   -6.4931   -0.6137 C.ar      1 <0>        -0.1135
     11 C10        -4.0460   -5.2689    0.0013 C.ar      1 <0>         0.1686
     12 N1         -5.3309   -4.7101    0.0272 N.am      1 <0>        -0.6599
     13 C11        -6.4141   -5.5063   -0.0685 C.2       1 <0>         0.5393
     14 O1         -6.2817   -6.7120   -0.0760 O.2       1 <0>        -0.4958
     15 C12        -7.7896   -4.8986   -0.1661 C.3       1 <0>        -0.1645
     16 S2         -9.0275   -6.2196   -0.2815 S.3       1 <0>         0.1173
     17 C13       -10.5611   -5.3587   -0.3877 C.2       1 <0>         0.2158
     18 N2        -11.7670   -5.9286   -0.4841 N.2       1 <0>        -0.5191
     19 C14       -12.6942   -4.9958   -0.5440 C.2       1 <0>         0.5645
     20 N3        -12.0810   -3.7943   -0.4855 N.pl3     1 <0>        -0.5055
     21 N4        -10.7054   -4.0548   -0.3792 N.2       1 <0>        -0.3251
     22 N5        -14.0563   -5.2090   -0.6485 N.pl3     1 <0>        -0.5519
     23 N6        -14.5589   -6.5157   -0.6994 N.2       1 <0>        -0.2171
     24 C15       -15.8379   -6.7160   -0.7975 C.2       1 <0>         0.1233
     25 C16       -16.3667   -8.0909   -0.8510 C.ar      1 <0>        -0.1225
     26 C17       -15.4932   -9.1802   -0.7904 C.ar      1 <0>        -0.0233
     27 C18       -15.9911  -10.4637   -0.8408 C.ar      1 <0>        -0.2048
     28 C19       -17.3610  -10.6762   -0.9521 C.ar      1 <0>         0.2389
     29 C20       -18.2332   -9.5947   -1.0131 C.ar      1 <0>        -0.2057
     30 C21       -17.7432   -8.3084   -0.9566 C.ar      1 <0>        -0.0370
     31 N7        -17.8615  -11.9778   -1.0033 N.pl3     1 <0>        -0.6226
     32 C22       -19.3042  -12.2036   -1.1206 C.3       1 <0>         0.1156
     33 C23       -19.6915  -12.2700   -2.5993 C.3       1 <0>        -0.1735
     34 C24       -16.9443  -13.1183   -0.9397 C.3       1 <0>         0.1149
     35 C25       -16.7400  -13.5277    0.5203 C.3       1 <0>        -0.1735
     36 H1          0.6162    0.8297    4.2470 H         1 <0>         0.0575
     37 H2         -0.7333    1.2993    3.1856 H         1 <0>         0.0557
     38 H3         -1.0601    0.4747    4.7289 H         1 <0>         0.0558
     39 H4          0.3991   -0.7371    2.3374 H         1 <0>         0.0648
     40 H5          0.0722   -1.5616    3.8807 H         1 <0>         0.0649
     41 H6         -2.3640   -1.2780    3.5163 H         1 <0>         0.0743
     42 H7         -2.0372   -0.4534    1.9730 H         1 <0>         0.0741
     43 H8         -0.9048   -2.4898    1.1248 H         1 <0>         0.0893
     44 H9         -1.2316   -3.3143    2.6681 H         1 <0>         0.0897
     45 H10        -0.8785   -4.6352    1.0217 H         1 <0>         0.1265
     46 H11        -0.5180   -6.8134   -0.0643 H         1 <0>         0.1279
     47 H12        -2.4015   -8.0006   -1.1098 H         1 <0>         0.1311
     48 H13        -4.6569   -7.0173   -1.0739 H         1 <0>         0.1527
     49 H14        -5.4406   -3.7502    0.1140 H         1 <0>         0.4153
     50 H15        -7.9840   -4.2950    0.7205 H         1 <0>         0.1268
     51 H16        -7.8465   -4.2689   -1.0540 H         1 <0>         0.1275
     52 H17       -14.6639   -4.4538   -0.6866 H         1 <0>         0.3978
     53 H18       -16.5144   -5.8752   -0.8399 H         1 <0>         0.1168
     54 H19       -14.4292   -9.0160   -0.7047 H         1 <0>         0.1357
     55 H20       -15.3168  -11.3060   -0.7940 H         1 <0>         0.1265
     56 H21       -19.2963   -9.7635   -1.1003 H         1 <0>         0.1263
     57 H22       -18.4216   -7.4691   -0.9988 H         1 <0>         0.1255
     58 H23       -19.5656  -13.1433   -0.6340 H         1 <0>         0.0746
     59 H24       -19.8404  -11.3847   -0.6410 H         1 <0>         0.0771
     60 H25       -19.4301  -11.3303   -3.0858 H         1 <0>         0.0595
     61 H26       -19.1554  -13.0889   -3.0789 H         1 <0>         0.0564
     62 H27       -20.7649  -12.4380   -2.6865 H         1 <0>         0.0649
     63 H28       -17.3662  -13.9553   -1.4961 H         1 <0>         0.0746
     64 H29       -15.9855  -12.8383   -1.3761 H         1 <0>         0.0785
     65 H30       -16.3181  -12.6907    1.0767 H         1 <0>         0.0601
     66 H31       -17.6987  -13.8077    0.9567 H         1 <0>         0.0557
     67 H32       -16.0575  -14.3763    0.5676 H         1 <0>         0.0657
     68 H33       -12.5071   -2.9232   -0.5083 H         1 <0>         0.4383
@<TRIPOS>BOND
     1    1    2 1
     2    1   36 1
     3    1   37 1
     4    1   38 1
     5    2    3 1
     6    2   39 1
     7    2   40 1
     8    3    4 1
     9    3   41 1
    10    3   42 1
    11    4    5 1
    12    4   43 1
    13    4   44 1
    14    5    6 1
    15    6   11 ar
    16    6    7 ar
    17    7    8 ar
    18    7   45 1
    19    8    9 ar
    20    8   46 1
    21    9   10 ar
    22    9   47 1
    23   10   11 ar
    24   10   48 1
    25   11   12 1
    26   12   13 am
    27   12   49 1
    28   13   14 2
    29   13   15 1
    30   15   16 1
    31   15   50 1
    32   15   51 1
    33   16   17 1
    34   17   21 2
    35   17   18 1
    36   18   19 2
    37   19   20 1
    38   19   22 1
    39   20   21 1
    40   20   68 1
    41   22   23 1
    42   22   52 1
    43   23   24 2
    44   24   25 1
    45   24   53 1
    46   25   30 ar
    47   25   26 ar
    48   26   27 ar
    49   26   54 1
    50   27   28 ar
    51   27   55 1
    52   28   29 ar
    53   28   31 1
    54   29   30 ar
    55   29   56 1
    56   30   57 1
    57   31   32 1
    58   31   34 1
    59   32   33 1
    60   32   58 1
    61   32   59 1
    62   33   60 1
    63   33   61 1
    64   33   62 1
    65   34   35 1
    66   34   63 1
    67   34   64 1
    68   35   65 1
    69   35   66 1
    70   35   67 1
@<TRIPOS>MOLECULE
ZINC00695539
   62    65     0     0     0
SMALL
USER_CHARGES
2-[[4-allyl-5-(1-naphthylaminomethyl)-1,2,4-triazol-3-yl]sulfanyl]-N-[(2,4-dihydroxyphenyl)methyleneamino]propanamide
@<TRIPOS>ATOM
      1 C1         -3.9457   -1.5109   -4.6732 C.3       1 <0>        -0.1469
      2 C2         -2.8900   -0.4035   -4.6594 C.3       1 <0>        -0.1076
      3 H1         -1.9825   -0.7606   -5.1464 H         1 <0>         0.1284
      4 C3         -3.4155    0.8008   -5.3973 C.2       1 <0>         0.5558
      5 O1         -3.8679    1.7414   -4.7789 O.2       1 <0>        -0.4810
      6 N1         -3.3830    0.8329   -6.7443 N.am      1 <0>        -0.5795
      7 N2         -3.8716    1.9525   -7.4303 N.2       1 <0>        -0.2040
      8 C4         -3.8403    1.9834   -8.7279 C.2       1 <0>         0.1090
      9 C5         -4.3540    3.1606   -9.4492 C.ar      1 <0>        -0.0978
     10 C6         -4.3216    3.1968  -10.8457 C.ar      1 <0>        -0.0556
     11 C7         -4.8035    4.2994  -11.5164 C.ar      1 <0>        -0.1598
     12 C8         -5.3228    5.3771  -10.8087 C.ar      1 <0>         0.1427
     13 C9         -5.3594    5.3509   -9.4222 C.ar      1 <0>        -0.1823
     14 C10        -4.8828    4.2468   -8.7373 C.ar      1 <0>         0.1669
     15 O2         -4.9227    4.2175   -7.3802 O.3       1 <0>        -0.4711
     16 O3         -5.7969    6.4603  -11.4775 O.3       1 <0>        -0.4975
     17 S1         -2.5167    0.0529   -2.9481 S.3       1 <0>         0.0893
     18 C11        -1.7992   -1.4525   -2.3794 C.2       1 <0>         0.1533
     19 N3         -1.6243   -2.5480   -3.0815 N.2       1 <0>        -0.2904
     20 N4         -1.0780   -3.4527   -2.3501 N.2       1 <0>        -0.2573
     21 C12        -0.8688   -2.9913   -1.1497 C.2       1 <0>         0.1636
     22 N5         -1.3176   -1.6997   -1.1260 N.pl3     1 <0>        -0.4467
     23 C13        -1.2926   -0.7753    0.0102 C.3       1 <0>         0.1301
     24 C14         0.0021   -0.0041    0.0020 C.2       1 <0>        -0.1963
     25 C15        -0.0157    1.3058    0.0092 C.2       1 <0>        -0.1397
     26 C16        -0.2469   -3.7419   -0.0003 C.3       1 <0>         0.2182
     27 N6         -1.2953   -4.4265    0.7602 N.pl3     1 <0>        -0.7383
     28 C17        -0.9604   -5.1900    1.8764 C.ar      1 <0>         0.2303
     29 C18         0.3563   -5.3102    2.2675 C.ar      1 <0>        -0.2163
     30 C19         0.7008   -6.0673    3.3830 C.ar      1 <0>        -0.0606
     31 C20        -0.2483   -6.7162    4.1127 C.ar      1 <0>        -0.1669
     32 C21        -1.6013   -6.6235    3.7450 C.ar      1 <0>        -0.0101
     33 C22        -1.9653   -5.8523    2.6137 C.ar      1 <0>        -0.0939
     34 C23        -3.3171   -5.7615    2.2471 C.ar      1 <0>        -0.0969
     35 C24        -4.2599   -6.4141    2.9814 C.ar      1 <0>        -0.1278
     36 C25        -3.9031   -7.1729    4.0944 C.ar      1 <0>        -0.1057
     37 C26        -2.6023   -7.2833    4.4791 C.ar      1 <0>        -0.1150
     38 H2         -3.5655   -2.3819   -4.1395 H         1 <0>         0.0937
     39 H3         -4.8531   -1.1538   -4.1862 H         1 <0>         0.0739
     40 H4         -4.1704   -1.7858   -5.7037 H         1 <0>         0.0733
     41 H5         -3.0213    0.0808   -7.2388 H         1 <0>         0.3880
     42 H6         -3.4376    1.1461   -9.2784 H         1 <0>         0.1240
     43 H7         -3.9188    2.3612  -11.3988 H         1 <0>         0.1389
     44 H8         -4.7780    4.3263  -12.5958 H         1 <0>         0.1378
     45 H9         -5.7643    6.1907   -8.8771 H         1 <0>         0.1398
     46 H10        -4.1325    4.5787   -6.9556 H         1 <0>         0.3958
     47 H11        -6.7366    6.4055  -11.6990 H         1 <0>         0.3974
     48 H12        -1.3737   -1.3393    0.9394 H         1 <0>         0.1111
     49 H13        -2.1295   -0.0812   -0.0676 H         1 <0>         0.1056
     50 H14         0.9446   -0.5313   -0.0098 H         1 <0>         0.1192
     51 H15         0.9122    1.8585    0.0033 H         1 <0>         0.1115
     52 H16        -0.9582    1.8330    0.0166 H         1 <0>         0.1054
     53 H17         0.4604   -4.4760   -0.3860 H         1 <0>         0.1014
     54 H18         0.2756   -3.0411    0.6509 H         1 <0>         0.0839
     55 H19        -2.2226   -4.3482    0.4866 H         1 <0>         0.4020
     56 H20         1.1287   -4.8087    1.7034 H         1 <0>         0.1210
     57 H21         1.7383   -6.1442    3.6729 H         1 <0>         0.1221
     58 H22         0.0387   -7.3015    4.9737 H         1 <0>         0.1234
     59 H23        -3.6080   -5.1773    1.3866 H         1 <0>         0.1157
     60 H24        -5.2993   -6.3429    2.6969 H         1 <0>         0.1217
     61 H25        -4.6702   -7.6806    4.6603 H         1 <0>         0.1230
     62 H26        -2.3404   -7.8746    5.3441 H         1 <0>         0.1281
@<TRIPOS>BOND
     1    1    2 1
     2    1   38 1
     3    1   39 1
     4    1   40 1
     5    2    3 1
     6    2    4 1
     7    2   17 1
     8    4    5 2
     9    4    6 am
    10    6    7 1
    11    6   41 1
    12    7    8 2
    13    8    9 1
    14    8   42 1
    15    9   14 ar
    16    9   10 ar
    17   10   11 ar
    18   10   43 1
    19   11   12 ar
    20   11   44 1
    21   12   13 ar
    22   12   16 1
    23   13   14 ar
    24   13   45 1
    25   14   15 1
    26   15   46 1
    27   16   47 1
    28   17   18 1
    29   18   22 1
    30   18   19 2
    31   19   20 1
    32   20   21 2
    33   21   22 1
    34   21   26 1
    35   22   23 1
    36   23   24 1
    37   23   48 1
    38   23   49 1
    39   24   25 2
    40   24   50 1
    41   25   51 1
    42   25   52 1
    43   26   27 1
    44   26   53 1
    45   26   54 1
    46   27   28 1
    47   27   55 1
    48   28   33 ar
    49   28   29 ar
    50   29   30 ar
    51   29   56 1
    52   30   31 ar
    53   30   57 1
    54   31   32 ar
    55   31   58 1
    56   32   37 ar
    57   32   33 ar
    58   33   34 ar
    59   34   35 ar
    60   34   59 1
    61   35   36 ar
    62   35   60 1
    63   36   37 ar
    64   36   61 1
    65   37   62 1
@<TRIPOS>MOLECULE
ZINC02794832
   58    61     0     0     0
SMALL
USER_CHARGES
3-[[(5R,7S)-5-(4-methoxyphenyl)-7-(trifluoromethyl)4,5,6,7-tetrahydropyrazolo[1,5-a]pyrimidine-3-carbonyl]amino]-1-(m-tolyl)thiourea
@<TRIPOS>ATOM
      1 C1         -1.7225    0.9815   -1.7845 C.3       1 <0>        -0.1162
      2 C2         -0.8422    1.7521   -0.8346 C.ar      1 <0>        -0.0798
      3 C3         -0.0143    1.0758    0.0428 C.ar      1 <0>        -0.1146
      4 C4          0.7990    1.7791    0.9120 C.ar      1 <0>        -0.1062
      5 C5          0.7832    3.1603    0.9101 C.ar      1 <0>        -0.0803
      6 C6         -0.0510    3.8424    0.0343 C.ar      1 <0>         0.1344
      7 C7         -0.8672    3.1328   -0.8373 C.ar      1 <0>        -0.1256
      8 N1         -0.0691    5.2412    0.0295 N.pl3     1 <0>        -0.6438
      9 C8          1.0854    5.9304    0.1230 C.2       1 <0>         0.5625
     10 S1          2.5821    5.0996    0.1045 S.2       1 <0>        -0.5897
     11 N2          1.0615    7.2736    0.2311 N.pl3     1 <0>        -0.4687
     12 N3         -0.1634    7.9534    0.2462 N.am      1 <0>        -0.5582
     13 C9         -0.1873    9.2966    0.3543 C.2       1 <0>         0.6216
     14 O1          0.8551    9.9189    0.4388 O.2       1 <0>        -0.5511
     15 C10        -1.4705   10.0089    0.3702 C.2       1 <0>        -0.3610
     16 C11        -2.7588    9.4282    0.2749 C.2       1 <0>         0.1142
     17 N4         -3.6431   10.3859    0.3286 N.2       1 <0>        -0.2778
     18 N5         -2.9849   11.6097    0.4499 N.pl3     1 <0>        -0.4020
     19 C12        -1.6533   11.3815    0.4755 C.2       1 <0>         0.4623
     20 N6         -0.6814   12.3534    0.5861 N.pl3     1 <0>        -0.7028
     21 C13        -1.2544   13.6080    1.0961 C.3       1 <0>         0.1815
     22 H1         -1.5179   13.4490    2.1522 H         1 <0>         0.0915
     23 C14        -2.4916   13.9795    0.2721 C.3       1 <0>        -0.1511
     24 C15        -3.5934   12.9435    0.5375 C.3       1 <0>         0.1263
     25 H2         -4.0269   13.0595    1.5418 H         1 <0>         0.1409
     26 C16        -4.6980   13.0792   -0.5126 C.3       1 <0>         0.4560
     27 F1         -5.6787   12.1076   -0.2860 F         1 <0>        -0.1591
     28 F2         -5.2726   14.3516   -0.4231 F         1 <0>        -0.1708
     29 F3         -4.1525   12.9025   -1.7887 F         1 <0>        -0.1738
     30 C17        -0.2303   14.7083    0.9879 C.ar      1 <0>        -0.1420
     31 C18         0.5839   14.7861   -0.1268 C.ar      1 <0>        -0.0648
     32 C19         1.5196   15.7971   -0.2309 C.ar      1 <0>        -0.2039
     33 C20         1.6497   16.7280    0.7894 C.ar      1 <0>         0.1404
     34 C21         0.8354   16.6444    1.9095 C.ar      1 <0>        -0.1476
     35 C22        -0.1026   15.6348    2.0062 C.ar      1 <0>        -0.0595
     36 O2          2.5729   17.7204    0.6917 O.3       1 <0>        -0.3144
     37 C23         3.3766   17.7449   -0.4897 C.3       1 <0>         0.0214
     38 H3         -1.5657   -0.0972   -1.6364 H         1 <0>         0.0678
     39 H4         -1.4677    1.2503   -2.8203 H         1 <0>         0.0698
     40 H5         -2.7765    1.2290   -1.5901 H         1 <0>         0.0693
     41 H6          0.0001   -0.0041    0.0461 H         1 <0>         0.1239
     42 H7          1.4476    1.2480    1.5929 H         1 <0>         0.1280
     43 H8          1.4193    3.7092    1.5887 H         1 <0>         0.1415
     44 H9         -1.5170    3.6604   -1.5199 H         1 <0>         0.1229
     45 H10        -1.0255    5.7786   -0.0506 H         1 <0>         0.4158
     46 H11         2.0037    7.8361    0.3075 H         1 <0>         0.4908
     47 H12        -1.1056    7.3909    0.1698 H         1 <0>         0.4349
     48 H13        -2.9724    8.3741    0.1769 H         1 <0>         0.1903
     49 H14         0.3917   12.2941    0.3518 H         1 <0>         0.4732
     50 H15        -2.8419   14.9796    0.5672 H         1 <0>         0.1260
     51 H16        -2.2328   13.9823   -0.7970 H         1 <0>         0.1036
     52 H17         0.4853   14.0586   -0.9189 H         1 <0>         0.1270
     53 H18         2.1524   15.8601   -1.1039 H         1 <0>         0.1329
     54 H19         0.9350   17.3677    2.7053 H         1 <0>         0.1365
     55 H20        -0.7365   15.5691    2.8782 H         1 <0>         0.1343
     56 H21         4.0763   18.5922   -0.4396 H         1 <0>         0.1055
     57 H22         2.7287   17.8561   -1.3717 H         1 <0>         0.0587
     58 H23         3.9433   16.8053   -0.5671 H         1 <0>         0.0593
@<TRIPOS>BOND
     1    1    2 1
     2    1   38 1
     3    1   39 1
     4    1   40 1
     5    2    7 ar
     6    2    3 ar
     7    3    4 ar
     8    3   41 1
     9    4    5 ar
    10    4   42 1
    11    5    6 ar
    12    5   43 1
    13    6    7 ar
    14    6    8 1
    15    7   44 1
    16    8    9 1
    17    8   45 1
    18    9   10 2
    19    9   11 1
    20   11   12 1
    21   11   46 1
    22   12   13 am
    23   12   47 1
    24   13   14 2
    25   13   15 1
    26   15   19 2
    27   15   16 1
    28   16   17 2
    29   16   48 1
    30   17   18 1
    31   18   24 1
    32   18   19 1
    33   19   20 1
    34   20   21 1
    35   20   49 1
    36   21   22 1
    37   21   23 1
    38   21   30 1
    39   23   24 1
    40   23   50 1
    41   23   51 1
    42   24   25 1
    43   24   26 1
    44   26   27 1
    45   26   28 1
    46   26   29 1
    47   30   35 ar
    48   30   31 ar
    49   31   32 ar
    50   31   52 1
    51   32   33 ar
    52   32   53 1
    53   33   34 ar
    54   33   36 1
    55   34   35 ar
    56   34   54 1
    57   35   55 1
    58   36   37 1
    59   37   56 1
    60   37   57 1
    61   37   58 1
@<TRIPOS>MOLECULE
ZINC22129846
   76    79     0     0     0
SMALL
USER_CHARGES
(1R)-1-[[2-(bis(1-hydroxyethyl)amino)-4,8-bis(1-piperidyl)pyrimido[4,5-e]pyrimidin-6-yl]-(1-hydroxyethyl)amino]ethanol
@<TRIPOS>ATOM
      1 C1          2.7826   -0.5772    4.3359 C.3       1 <0>        -0.1553
      2 C2          3.3802    0.3953    3.3172 C.3       1 <0>         0.3534
      3 H1          4.3195    0.8477    3.6679 H         1 <0>         0.0867
      4 N1          2.4157    1.4615    3.0359 N.pl3     1 <0>        -0.5969
      5 C3          1.2130    1.1620    2.4173 C.ar      1 <0>         0.5745
      6 N2          0.9631   -0.0927    2.0927 N.ar      1 <0>        -0.5086
      7 C4         -0.1871   -0.4183    1.4947 C.ar      1 <0>         0.0690
      8 C5         -1.1278    0.5963    1.2161 C.ar      1 <0>         0.0747
      9 C6         -0.8084    1.9260    1.5865 C.ar      1 <0>         0.4288
     10 N3          0.3565    2.1502    2.1752 N.ar      1 <0>        -0.5735
     11 N4         -1.6861    2.9619    1.3350 N.pl3     1 <0>        -0.4485
     12 C7         -2.0312    3.0247   -0.0910 C.3       1 <0>         0.0525
     13 C8         -3.1122    4.0858   -0.3093 C.3       1 <0>        -0.1157
     14 C9         -2.5915    5.4438    0.1694 C.3       1 <0>        -0.1261
     15 C10        -2.1939    5.3382    1.6442 C.3       1 <0>        -0.1211
     16 C11        -1.1395    4.2409    1.8059 C.3       1 <0>         0.0628
     17 N5         -2.2777    0.2708    0.6173 N.ar      1 <0>        -0.5455
     18 C12        -2.5277   -0.9838    0.2927 C.ar      1 <0>         0.5877
     19 N6         -1.6716   -1.9721    0.5355 N.ar      1 <0>        -0.5762
     20 C13        -0.5066   -1.7481    1.1243 C.ar      1 <0>         0.4400
     21 N7          0.3736   -2.7831    1.3703 N.pl3     1 <0>        -0.4456
     22 C14         1.6850   -2.5131    0.7673 C.3       1 <0>         0.0480
     23 C15         2.6729   -3.6063    1.1810 C.3       1 <0>        -0.1075
     24 C16         2.1462   -4.9664    0.7147 C.3       1 <0>        -0.1282
     25 C17         0.7587   -5.2016    1.3180 C.3       1 <0>        -0.1201
     26 C18        -0.1737   -4.0622    0.9004 C.3       1 <0>         0.0605
     27 N8         -3.7300   -1.2831   -0.3267 N.pl3     1 <0>        -0.5658
     28 C19        -4.6945   -0.2169   -0.6080 C.3       1 <0>         0.3662
     29 H2         -4.6659    0.5153    0.2124 H         1 <0>         0.0738
     30 C20        -4.3772    0.4126   -1.9659 C.3       1 <0>        -0.1850
     31 O1         -6.0147   -0.7632   -0.6329 O.3       1 <0>        -0.5966
     32 C21        -4.0371   -2.6660   -0.7005 C.3       1 <0>         0.3597
     33 H3         -3.1018   -3.2445   -0.7263 H         1 <0>         0.0783
     34 C22        -5.0571   -3.2453    0.2818 C.3       1 <0>        -0.1878
     35 O2         -4.5801   -2.6928   -2.0220 O.3       1 <0>        -0.6034
     36 C23         2.7231    2.8445    3.4088 C.3       1 <0>         0.3601
     37 H4          2.3503    3.5171    2.6223 H         1 <0>         0.0733
     38 C24         2.1139    3.1509    4.7784 C.3       1 <0>        -0.1884
     39 O3          4.1403    3.0180    3.4682 O.3       1 <0>        -0.6134
     40 O4          3.6810   -0.3058    2.1089 O.3       1 <0>        -0.5822
     41 H5          3.5068   -1.3778    4.5471 H         1 <0>         0.0682
     42 H6          1.8603   -1.0156    3.9270 H         1 <0>         0.0874
     43 H7          2.5510   -0.0374    5.2660 H         1 <0>         0.0618
     44 H8         -1.1362    3.2885   -0.6736 H         1 <0>         0.0406
     45 H9         -2.4077    2.0451   -0.4206 H         1 <0>         0.1155
     46 H10        -3.3595    4.1425   -1.3796 H         1 <0>         0.0740
     47 H11        -4.0128    3.8146    0.2612 H         1 <0>         0.0759
     48 H12        -1.7153    5.7324   -0.4297 H         1 <0>         0.0607
     49 H13        -3.3809    6.2010    0.0529 H         1 <0>         0.0686
     50 H14        -1.7799    6.2997    1.9821 H         1 <0>         0.0738
     51 H15        -3.0803    5.0890    2.2460 H         1 <0>         0.0730
     52 H16        -0.8623    4.1528    2.8668 H         1 <0>         0.0876
     53 H17        -0.2487    4.4990    1.2144 H         1 <0>         0.0522
     54 H18         1.5893   -2.5015   -0.3285 H         1 <0>         0.0339
     55 H19         2.0537   -1.5362    1.1135 H         1 <0>         0.1387
     56 H20         3.6510   -3.4112    0.7171 H         1 <0>         0.0731
     57 H21         2.7802   -3.6084    2.2758 H         1 <0>         0.0747
     58 H22         2.0783   -4.9765   -0.3832 H         1 <0>         0.0590
     59 H23         2.8328   -5.7590    1.0469 H         1 <0>         0.0668
     60 H24         0.3575   -6.1585    0.9528 H         1 <0>         0.0727
     61 H25         0.8360   -5.2311    2.4149 H         1 <0>         0.0724
     62 H26        -1.1676   -4.2209    1.3443 H         1 <0>         0.0868
     63 H27        -0.2606   -4.0432   -0.1960 H         1 <0>         0.0525
     64 H28        -5.1014    1.2132   -2.1771 H         1 <0>         0.0622
     65 H29        -4.4411   -0.3560   -2.7502 H         1 <0>         0.0754
     66 H30        -3.3610    0.8332   -1.9466 H         1 <0>         0.0596
     67 H31        -6.8769   -0.1093   -0.8306 H         1 <0>         0.4202
     68 H32        -5.2877   -4.2836    0.0011 H         1 <0>         0.0597
     69 H33        -5.9778   -2.6441    0.2514 H         1 <0>         0.0892
     70 H34        -4.6391   -3.2246    1.2991 H         1 <0>         0.0562
     71 H35        -4.8729   -3.6505   -2.4770 H         1 <0>         0.4190
     72 H36         2.3447    4.1893    5.0583 H         1 <0>         0.0675
     73 H37         2.5360    2.4663    5.5289 H         1 <0>         0.0642
     74 H38         1.0230    3.0173    4.7326 H         1 <0>         0.0693
     75 H39         4.5638    3.9977    3.7342 H         1 <0>         0.4312
     76 H40         4.1206    0.2319    1.2559 H         1 <0>         0.3977
@<TRIPOS>BOND
     1    1    2 1
     2    1   41 1
     3    1   42 1
     4    1   43 1
     5    2    3 1
     6    2    4 1
     7    2   40 1
     8    4    5 1
     9    4   36 1
    10    5   10 ar
    11    5    6 ar
    12    6    7 ar
    13    7   20 ar
    14    7    8 ar
    15    8    9 ar
    16    8   17 ar
    17    9   10 ar
    18    9   11 1
    19   11   16 1
    20   11   12 1
    21   12   13 1
    22   12   44 1
    23   12   45 1
    24   13   14 1
    25   13   46 1
    26   13   47 1
    27   14   15 1
    28   14   48 1
    29   14   49 1
    30   15   16 1
    31   15   50 1
    32   15   51 1
    33   16   52 1
    34   16   53 1
    35   17   18 ar
    36   18   19 ar
    37   18   27 1
    38   19   20 ar
    39   20   21 1
    40   21   26 1
    41   21   22 1
    42   22   23 1
    43   22   54 1
    44   22   55 1
    45   23   24 1
    46   23   56 1
    47   23   57 1
    48   24   25 1
    49   24   58 1
    50   24   59 1
    51   25   26 1
    52   25   60 1
    53   25   61 1
    54   26   62 1
    55   26   63 1
    56   27   28 1
    57   27   32 1
    58   28   29 1
    59   28   30 1
    60   28   31 1
    61   30   64 1
    62   30   65 1
    63   30   66 1
    64   31   67 1
    65   32   33 1
    66   32   34 1
    67   32   35 1
    68   34   68 1
    69   34   69 1
    70   34   70 1
    71   35   71 1
    72   36   37 1
    73   36   38 1
    74   36   39 1
    75   38   72 1
    76   38   73 1
    77   38   74 1
    78   39   75 1
    79   40   76 1
@<TRIPOS>MOLECULE
ZINC36584767
   64    66     0     0     0
SMALL
USER_CHARGES

@<TRIPOS>ATOM
      1 C1          7.2843   -2.4375    9.1736 C.3       1 <0>        -0.1279
      2 C2          7.3153   -2.6148    7.6774 C.ar      1 <0>        -0.0254
      3 C3          8.4740   -3.0412    7.0558 C.ar      1 <0>        -0.1404
      4 C4          8.5025   -3.2038    5.6833 C.ar      1 <0>        -0.0193
      5 C5          7.3721   -2.9405    4.9326 C.ar      1 <0>        -0.6683
      6 C6          6.2130   -2.5151    5.5543 C.ar      1 <0>        -0.0171
      7 C7          6.1833   -2.3566    6.9272 C.ar      1 <0>        -0.1407
      8 S1          7.4087   -3.1467    3.1830 S.o2      1 <0>         2.4764
      9 O1          6.4115   -2.2611    2.6926 O.2       1 <0>        -0.9194
     10 O2          8.7728   -2.9710    2.8257 O.2       1 <0>        -0.9280
     11 C8          6.9069   -4.8678    2.9059 C.3       1 <0>        -0.3708
     12 N1          5.5193   -5.0478    3.3398 N.am      1 <0>        -0.6971
     13 C9          4.5155   -4.9491    2.4459 C.2       1 <0>         0.5281
     14 O3          4.7609   -4.7111    1.2823 O.2       1 <0>        -0.4867
     15 C10         3.0881   -5.1342    2.8923 C.3       1 <0>         0.1813
     16 H1          2.9191   -4.5731    3.8113 H         1 <0>         0.1340
     17 C11         2.1570   -4.6324    1.8189 C.ar      1 <0>        -0.1518
     18 C12         1.3311   -5.5206    1.1465 C.ar      1 <0>         0.1583
     19 C13         0.4742   -5.0588    0.1588 C.ar      1 <0>        -0.1814
     20 C14         0.4430   -3.7087   -0.1563 C.ar      1 <0>         0.1486
     21 C15         1.2682   -2.8203    0.5166 C.ar      1 <0>        -0.1816
     22 C16         2.1219   -3.2815    1.5074 C.ar      1 <0>         0.1702
     23 O4          2.9272   -2.4103    2.1701 O.3       1 <0>        -0.4935
     24 O5         -0.3960   -3.2563   -1.1249 O.3       1 <0>        -0.4933
     25 O6          1.3617   -6.8437    1.4553 O.3       1 <0>        -0.4757
     26 N2          2.8328   -6.5564    3.1344 N.am      1 <0>        -0.5741
     27 C17         1.8150   -6.9316    3.9343 C.2       1 <0>         0.5982
     28 O7          1.5663   -8.1128    4.0889 O.2       1 <0>        -0.4981
     29 C18         1.0071   -5.9165    4.6182 C.2       1 <0>        -0.1063
     30 C19        -0.0190   -6.1585    5.4859 C.2       1 <0>        -0.1062
     31 C20        -0.5032   -4.9070    5.8975 C.2       1 <0>        -0.2253
     32 C21         0.2392   -3.9677    5.2708 C.2       1 <0>         0.0015
     33 O8          1.1515   -4.5799    4.5048 O.3       1 <0>        -0.1561
     34 C22         3.6838   -7.5705    2.5072 C.3       1 <0>         0.1778
     35 C23         4.0905   -7.1012    1.1089 C.3       1 <0>        -0.2018
     36 C24         4.9371   -7.7822    3.3588 C.3       1 <0>        -0.1960
     37 C25         2.9124   -8.8875    2.3989 C.3       1 <0>        -0.1385
     38 H2          6.9809   -3.3728    9.6441 H         1 <0>         0.0808
     39 H3          8.2768   -2.1583    9.5271 H         1 <0>         0.0742
     40 H4          6.5726   -1.6533    9.4319 H         1 <0>         0.0741
     41 H5          9.3572   -3.2469    7.6424 H         1 <0>         0.1343
     42 H6          9.4080   -3.5362    5.1976 H         1 <0>         0.1421
     43 H7          5.3300   -2.3091    4.9676 H         1 <0>         0.1423
     44 H8          5.2767   -2.0277    7.4133 H         1 <0>         0.1337
     45 H9          6.9894   -5.1039    1.8450 H         1 <0>         0.1606
     46 H10         7.5554   -5.5318    3.4774 H         1 <0>         0.1510
     47 H11         5.3230   -5.2381    4.2705 H         1 <0>         0.4180
     48 H12        -0.1684   -5.7507   -0.3654 H         1 <0>         0.1391
     49 H13         1.2441   -1.7689    0.2710 H         1 <0>         0.1411
     50 H14         3.7917   -2.2813    1.7566 H         1 <0>         0.4048
     51 H15        -1.2695   -2.9986   -0.7997 H         1 <0>         0.3957
     52 H16         0.7765   -7.0911    2.1842 H         1 <0>         0.3793
     53 H17        -0.3868   -7.1256    5.7956 H         1 <0>         0.1616
     54 H18        -1.3164   -4.7283    6.5853 H         1 <0>         0.1581
     55 H19         0.1190   -2.8993    5.3735 H         1 <0>         0.2102
     56 H20         4.8883   -6.3631    1.1912 H         1 <0>         0.0914
     57 H21         4.4425   -7.9535    0.5277 H         1 <0>         0.0599
     58 H22         3.2304   -6.6527    0.6117 H         1 <0>         0.0840
     59 H23         4.6474   -8.1166    4.3549 H         1 <0>         0.0598
     60 H24         5.5703   -8.5368    2.8921 H         1 <0>         0.0704
     61 H25         5.4866   -6.8440    3.4359 H         1 <0>         0.0790
     62 H26         1.9214   -8.6953    1.9877 H         1 <0>         0.0723
     63 H27         3.4515   -9.5714    1.7433 H         1 <0>         0.0480
     64 H28         2.8149   -9.3339    3.3885 H         1 <0>         0.0809
@<TRIPOS>BOND
     1    1    2 1
     2    1   38 1
     3    1   39 1
     4    1   40 1
     5    2    7 ar
     6    2    3 ar
     7    3    4 ar
     8    3   41 1
     9    4    5 ar
    10    4   42 1
    11    5    6 ar
    12    5    8 1
    13    6    7 ar
    14    6   43 1
    15    7   44 1
    16    8    9 2
    17    8   10 2
    18    8   11 1
    19   11   12 1
    20   11   45 1
    21   11   46 1
    22   12   13 am
    23   12   47 1
    24   13   14 2
    25   13   15 1
    26   15   16 1
    27   15   17 1
    28   15   26 1
    29   17   22 ar
    30   17   18 ar
    31   18   19 ar
    32   18   25 1
    33   19   20 ar
    34   19   48 1
    35   20   21 ar
    36   20   24 1
    37   21   22 ar
    38   21   49 1
    39   22   23 1
    40   23   50 1
    41   24   51 1
    42   25   52 1
    43   26   27 am
    44   26   34 1
    45   27   28 2
    46   27   29 1
    47   29   33 1
    48   29   30 2
    49   30   31 1
    50   30   53 1
    51   31   32 2
    52   31   54 1
    53   32   33 1
    54   32   55 1
    55   34   35 1
    56   34   36 1
    57   34   37 1
    58   35   56 1
    59   35   57 1
    60   35   58 1
    61   36   59 1
    62   36   60 1
    63   36   61 1
    64   37   62 1
    65   37   63 1
    66   37   64 1
@<TRIPOS>MOLECULE
ZINC40825286
   58    61     0     0     0
SMALL
USER_CHARGES

@<TRIPOS>ATOM
      1 C1          0.9765    1.4888   -0.3019 C.3       1 <0>        -0.1008
      2 C2          0.8188   -0.0085   -0.2365 C.2       1 <0>        -0.0151
      3 C3          0.3819   -0.8532   -1.2642 C.2       1 <0>        -0.1691
      4 C4          0.3869   -2.1373   -0.7732 C.2       1 <0>         0.0901
      5 O1          0.8070   -2.0934    0.4891 O.3       1 <0>        -0.1428
      6 C5          1.0792   -0.8149    0.8362 C.2       1 <0>        -0.0983
      7 C6          1.5688   -0.3680    2.1453 C.2       1 <0>         0.6144
      8 O2          1.7775    0.8139    2.3458 O.2       1 <0>        -0.5094
      9 N1          1.7873   -1.2667    3.1257 N.am      1 <0>        -0.5118
     10 N2          2.2547   -0.8401    4.3756 N.am      1 <0>        -0.5111
     11 C7          2.4733   -1.7387    5.3559 C.2       1 <0>         0.5609
     12 O3          2.2648   -2.9194    5.1557 O.2       1 <0>        -0.5152
     13 C8          2.9666   -1.2885    6.6749 C.ar      1 <0>        -0.0790
     14 C9          3.2015    0.0671    6.9100 C.ar      1 <0>        -0.0850
     15 C10         3.6613    0.4806    8.1432 C.ar      1 <0>        -0.0576
     16 C11         3.8901   -0.4452    9.1456 C.ar      1 <0>        -0.0220
     17 C12         3.6597   -1.7905    8.9190 C.ar      1 <0>        -0.0580
     18 C13         3.1939   -2.2166    7.6924 C.ar      1 <0>        -0.0521
     19 N3          4.3840    0.0056   10.4661 N.pl3     1 <0>         0.0263
     20 O4          4.5866    1.1804   10.6669 O.2       1 <0>        -0.1463
     21 O5          4.5847   -0.8011   11.3440 O.3       1 <0>        -0.1459
     22 C14        -0.0304   -3.3310   -1.5941 C.3       1 <0>        -0.0503
     23 C15        -0.8997   -2.8644   -2.7648 C.3       1 <0>        -0.1099
     24 C16        -0.1908   -1.7620   -3.5586 C.3       1 <0>        -0.1258
     25 C17        -0.0319   -0.5498   -2.6525 C.2       1 <0>         0.2131
     26 N4         -0.2440    0.6612   -3.0666 N.2       1 <0>        -0.2825
     27 N5         -0.6344    0.8899   -4.3925 N.pl3     1 <0>        -0.5338
     28 C18        -0.8548    2.1480   -4.8227 C.2       1 <0>         0.5860
     29 S1         -1.3319    2.4274   -6.4430 S.2       1 <0>        -0.5921
     30 N6         -0.6997    3.1861   -3.9774 N.pl3     1 <0>        -0.6095
     31 C19        -0.8413    4.4964   -4.4456 C.ar      1 <0>         0.1103
     32 C20        -1.9112    4.8306   -5.2657 C.ar      1 <0>        -0.0688
     33 C21        -2.0485    6.1255   -5.7260 C.ar      1 <0>        -0.1139
     34 C22        -1.1219    7.0887   -5.3714 C.ar      1 <0>        -0.1094
     35 C23        -0.0555    6.7594   -4.5550 C.ar      1 <0>        -0.1170
     36 C24         0.0844    5.4676   -4.0867 C.ar      1 <0>        -0.1180
     37 H1          1.9835    1.7336   -0.6398 H         1 <0>         0.0819
     38 H2          0.2486    1.9006   -1.0010 H         1 <0>         0.0773
     39 H3          0.8116    1.9151    0.6876 H         1 <0>         0.0916
     40 H4          1.6209   -2.2089    2.9659 H         1 <0>         0.4396
     41 H5          2.4211    0.1021    4.5354 H         1 <0>         0.4351
     42 H6          3.0240    0.7907    6.1281 H         1 <0>         0.1522
     43 H7          3.8435    1.5293    8.3264 H         1 <0>         0.1651
     44 H8          3.8406   -2.5081    9.7056 H         1 <0>         0.1660
     45 H9          3.0098   -3.2665    7.5183 H         1 <0>         0.1650
     46 H10         0.8559   -3.8360   -1.9781 H         1 <0>         0.1093
     47 H11        -0.6000   -4.0199   -0.9703 H         1 <0>         0.1059
     48 H12        -1.0991   -3.7097   -3.4235 H         1 <0>         0.1002
     49 H13        -1.8440   -2.4793   -2.3799 H         1 <0>         0.0788
     50 H14         0.7903   -2.1126   -3.8789 H         1 <0>         0.1074
     51 H15        -0.7886   -1.4939   -4.4297 H         1 <0>         0.0860
     52 H16        -0.7461    0.1427   -5.0009 H         1 <0>         0.4186
     53 H17        -0.4897    3.0246   -3.0442 H         1 <0>         0.4172
     54 H18        -2.6349    4.0785   -5.5436 H         1 <0>         0.1466
     55 H19        -2.8802    6.3859   -6.3638 H         1 <0>         0.1288
     56 H20        -1.2311    8.1005   -5.7333 H         1 <0>         0.1254
     57 H21         0.6667    7.5139   -4.2802 H         1 <0>         0.1279
     58 H22         0.9150    5.2121   -3.4455 H         1 <0>         0.1236
@<TRIPOS>BOND
     1    1    2 1
     2    1   37 1
     3    1   38 1
     4    1   39 1
     5    2    6 2
     6    2    3 1
     7    3   25 1
     8    3    4 2
     9    4    5 1
    10    4   22 1
    11    5    6 1
    12    6    7 1
    13    7    8 2
    14    7    9 am
    15    9   10 1
    16    9   40 1
    17   10   11 am
    18   10   41 1
    19   11   12 2
    20   11   13 1
    21   13   18 ar
    22   13   14 ar
    23   14   15 ar
    24   14   42 1
    25   15   16 ar
    26   15   43 1
    27   16   17 ar
    28   16   19 1
    29   17   18 ar
    30   17   44 1
    31   18   45 1
    32   19   20 2
    33   19   21 1
    34   22   23 1
    35   22   46 1
    36   22   47 1
    37   23   24 1
    38   23   48 1
    39   23   49 1
    40   24   25 1
    41   24   50 1
    42   24   51 1
    43   25   26 2
    44   26   27 1
    45   27   28 1
    46   27   52 1
    47   28   29 2
    48   28   30 1
    49   30   31 1
    50   30   53 1
    51   31   36 ar
    52   31   32 ar
    53   32   33 ar
    54   32   54 1
    55   33   34 ar
    56   33   55 1
    57   34   35 ar
    58   34   56 1
    59   35   36 ar
    60   35   57 1
    61   36   58 1
@<TRIPOS>MOLECULE
ZINC09826282
   58    59     0     0     0
SMALL
USER_CHARGES
N-[[2-(2-bromo-4-ethyl-phenoxy)acetyl]aminothiocarbamoyl]-2-(2-ethoxyethoxy)benzamide
@<TRIPOS>ATOM
      1 C1          5.7640   -9.0960   -1.5472 C.3       1 <0>        -0.1495
      2 C2          5.7050   -8.6000   -0.1010 C.3       1 <0>        -0.0826
      3 C3          5.4880   -7.1088   -0.0899 C.ar      1 <0>        -0.1080
      4 C4          4.2029   -6.5984   -0.0740 C.ar      1 <0>        -0.0616
      5 C5          4.0009   -5.2319   -0.0642 C.ar      1 <0>        -0.2007
      6 C6          5.0885   -4.3708   -0.0700 C.ar      1 <0>         0.1464
      7 C7          6.3774   -4.8851   -0.0909 C.ar      1 <0>        -0.1163
      8 C8          6.5740   -6.2534   -0.0953 C.ar      1 <0>        -0.0495
      9 Br1         7.8631   -3.7153   -0.1061 Br        1 <0>        -0.0267
     10 O1          4.8922   -3.0259   -0.0609 O.3       1 <0>        -0.2750
     11 C9          3.5386   -2.5680   -0.0455 C.3       1 <0>         0.0508
     12 C10         3.5182   -1.0612   -0.0372 C.2       1 <0>         0.5212
     13 O2          4.5601   -0.4405   -0.0438 O.2       1 <0>        -0.4830
     14 N1          2.3420   -0.4032   -0.0225 N.am      1 <0>        -0.5510
     15 N2          2.3230    0.9976   -0.0148 N.pl3     1 <0>        -0.4572
     16 C11         1.1468    1.6555   -0.0000 C.2       1 <0>         0.5168
     17 S1          1.1236    3.3673    0.0094 S.2       1 <0>        -0.4491
     18 N3         -0.0111    0.9658    0.0074 N.am      1 <0>        -0.6448
     19 C12        -1.1873    1.6238    0.0165 C.2       1 <0>         0.5327
     20 O3         -1.2038    2.8392    0.0232 O.2       1 <0>        -0.3745
     21 C13        -2.4542    0.8692    0.0184 C.ar      1 <0>        -0.1774
     22 C14        -2.4400   -0.5281    0.0050 C.ar      1 <0>        -0.0529
     23 C15        -3.6272   -1.2271    0.0118 C.ar      1 <0>        -0.1643
     24 C16        -4.8366   -0.5510    0.0216 C.ar      1 <0>        -0.0435
     25 C17        -4.8653    0.8292    0.0297 C.ar      1 <0>        -0.2171
     26 C18        -3.6799    1.5494    0.0279 C.ar      1 <0>         0.1989
     27 O4         -3.7065    2.9056    0.0349 O.3       1 <0>        -0.2689
     28 C19        -4.9922    3.5291    0.0444 C.3       1 <0>         0.0550
     29 C20        -4.8216    5.0496    0.0513 C.3       1 <0>         0.0650
     30 O5         -4.2087    5.4656   -1.1707 O.3       1 <0>        -0.3794
     31 C21        -4.0029    6.8765   -1.2668 C.3       1 <0>         0.0590
     32 C22        -3.3447    7.2057   -2.6082 C.3       1 <0>        -0.1520
     33 H1          5.9209  -10.1747   -1.5552 H         1 <0>         0.0608
     34 H2          4.8258   -8.8616   -2.0502 H         1 <0>         0.0559
     35 H3          6.5871   -8.6052   -2.0664 H         1 <0>         0.0569
     36 H4          6.6431   -8.8344    0.4020 H         1 <0>         0.0752
     37 H5          4.8818   -9.0908    0.4181 H         1 <0>         0.0752
     38 H6          3.3563   -7.2689   -0.0695 H         1 <0>         0.1339
     39 H7          2.9968   -4.8341   -0.0525 H         1 <0>         0.1366
     40 H8          7.5767   -6.6545   -0.1077 H         1 <0>         0.1409
     41 H9          3.0383   -2.9431    0.8473 H         1 <0>         0.1058
     42 H10         3.0213   -2.9335   -0.9326 H         1 <0>         0.1058
     43 H11         1.5086   -0.8996   -0.0172 H         1 <0>         0.4188
     44 H12         3.1563    1.4940   -0.0201 H         1 <0>         0.4584
     45 H13         0.0021   -0.0041    0.0020 H         1 <0>         0.3980
     46 H14        -1.4997   -1.0593   -0.0069 H         1 <0>         0.1241
     47 H15        -3.6152   -2.3070    0.0048 H         1 <0>         0.1336
     48 H16        -5.7624   -1.1071    0.0227 H         1 <0>         0.1342
     49 H17        -5.8120    1.3489    0.0370 H         1 <0>         0.1390
     50 H18        -5.5478    3.2299   -0.8443 H         1 <0>         0.0749
     51 H19        -5.5390    3.2209    0.9356 H         1 <0>         0.0809
     52 H20        -5.7980    5.5243    0.1481 H         1 <0>         0.0715
     53 H21        -4.1912    5.3407    0.8915 H         1 <0>         0.0640
     54 H22        -4.9624    7.3891   -1.1974 H         1 <0>         0.0464
     55 H23        -3.3555    7.2055   -0.4540 H         1 <0>         0.0508
     56 H24        -3.1878    8.2818   -2.6815 H         1 <0>         0.0709
     57 H25        -2.3853    6.6930   -2.6777 H         1 <0>         0.0662
     58 H26        -3.9922    6.8767   -3.4211 H         1 <0>         0.0608
@<TRIPOS>BOND
     1    1    2 1
     2    1   33 1
     3    1   34 1
     4    1   35 1
     5    2    3 1
     6    2   36 1
     7    2   37 1
     8    3    8 ar
     9    3    4 ar
    10    4    5 ar
    11    4   38 1
    12    5    6 ar
    13    5   39 1
    14    6    7 ar
    15    6   10 1
    16    7    8 ar
    17    7    9 1
    18    8   40 1
    19   10   11 1
    20   11   12 1
    21   11   41 1
    22   11   42 1
    23   12   13 2
    24   12   14 am
    25   14   15 1
    26   14   43 1
    27   15   16 1
    28   15   44 1
    29   16   17 2
    30   16   18 1
    31   18   19 am
    32   18   45 1
    33   19   20 2
    34   19   21 1
    35   21   26 ar
    36   21   22 ar
    37   22   23 ar
    38   22   46 1
    39   23   24 ar
    40   23   47 1
    41   24   25 ar
    42   24   48 1
    43   25   26 ar
    44   25   49 1
    45   26   27 1
    46   27   28 1
    47   28   29 1
    48   28   50 1
    49   28   51 1
    50   29   30 1
    51   29   52 1
    52   29   53 1
    53   30   31 1
    54   31   32 1
    55   31   54 1
    56   31   55 1
    57   32   56 1
    58   32   57 1
    59   32   58 1
@<TRIPOS>MOLECULE
ZINC12250080
   61    64     0     0     0
SMALL
USER_CHARGES
(4R)-5-cyano-N-(2-ethyl-6-methyl-phenyl)-4-(2-furyl)-2-methyl-6-[2-oxo-2-(thiazol-2-ylamino)ethyl]sulfanyl-1,4-dihydropyridine-3-carboxamide
@<TRIPOS>ATOM
      1 C1          1.4779    0.9428   -4.8225 C.3       1 <0>        -0.1493
      2 C2          1.0894   -0.2872   -3.9997 C.3       1 <0>        -0.0837
      3 C3          1.9863   -0.3880   -2.7928 C.ar      1 <0>        -0.0945
      4 C4          3.1189   -1.1775   -2.8371 C.ar      1 <0>        -0.1136
      5 C5          3.9392   -1.2750   -1.7283 C.ar      1 <0>        -0.1207
      6 C6          3.6321   -0.5784   -0.5737 C.ar      1 <0>        -0.1142
      7 C7          2.5044    0.2171   -0.5247 C.ar      1 <0>        -0.0678
      8 C8          1.6782    0.3172   -1.6369 C.ar      1 <0>         0.1475
      9 N1          0.5354    1.1220   -1.5907 N.am      1 <0>        -0.6783
     10 C9         -0.3308    1.0041   -0.5650 C.2       1 <0>         0.5881
     11 O1         -0.1652    0.1384    0.2754 O.2       1 <0>        -0.5116
     12 C10        -1.4364    1.8827   -0.4677 C.2       1 <0>        -0.2491
     13 C11        -2.5212    1.6547   -1.2253 C.2       1 <0>         0.1881
     14 N2         -3.6100    2.4813   -1.1650 N.pl3     1 <0>        -0.6502
     15 C12        -3.4895    3.7440   -0.6291 C.2       1 <0>         0.1660
     16 C13        -2.4273    4.0606    0.1592 C.2       1 <0>        -0.1188
     17 C14        -1.3627    3.0488    0.4757 C.3       1 <0>         0.1414
     18 H1         -1.5222    2.6804    1.4998 H         1 <0>         0.1173
     19 C15        -0.0092    3.7002    0.3538 C.2       1 <0>        -0.0213
     20 C16         0.8859    3.8460    1.3472 C.2       1 <0>        -0.1867
     21 C17         2.0086    4.5034    0.7937 C.2       1 <0>        -0.2088
     22 C18         1.7290    4.7274   -0.5028 C.2       1 <0>        -0.0351
     23 O2          0.5055    4.2388   -0.7637 O.3       1 <0>        -0.1656
     24 C19        -2.3215    5.3834    0.6972 C.1       1 <0>         0.2543
     25 N3         -2.2375    6.4328    1.1241 N.1       1 <0>        -0.4011
     26 S1         -4.7207    4.9584   -0.9666 S.3       1 <0>         0.0501
     27 C20        -5.8318    3.9948   -2.0216 C.3       1 <0>        -0.1814
     28 C21        -6.9945    4.8551   -2.4448 C.2       1 <0>         0.5311
     29 O3         -7.0650    6.0064   -2.0700 O.2       1 <0>        -0.4464
     30 N4         -7.9559    4.3451   -3.2398 N.am      1 <0>        -0.6286
     31 C22        -9.0284    5.1386   -3.6301 C.2       1 <0>         0.3029
     32 N5         -9.2825    6.3963   -3.3256 N.2       1 <0>        -0.5147
     33 C23       -10.3547    7.0082   -3.7891 C.2       1 <0>         0.0568
     34 C24       -11.2046    6.3107   -4.5817 C.2       1 <0>        -0.2248
     35 S2        -10.3812    4.7259   -4.6375 S.3       1 <0>         0.0587
     36 C25        -2.5421    0.4669   -2.1526 C.3       1 <0>        -0.1326
     37 C26         2.1703    0.9754    0.7340 C.3       1 <0>        -0.1178
     38 H2          0.8232    1.0164   -5.7034 H         1 <0>         0.0602
     39 H3          2.5239    0.8495   -5.1498 H         1 <0>         0.0599
     40 H4          1.3658    1.8468   -4.2058 H         1 <0>         0.0517
     41 H5          0.0434   -0.1939   -3.6724 H         1 <0>         0.0687
     42 H6          1.2014   -1.1912   -4.6163 H         1 <0>         0.0746
     43 H7          3.3614   -1.7230   -3.7371 H         1 <0>         0.1226
     44 H8          4.8220   -1.8962   -1.7641 H         1 <0>         0.1220
     45 H9          4.2751   -0.6564    0.2906 H         1 <0>         0.1224
     46 H10         0.3435    1.8513   -2.3916 H         1 <0>         0.4275
     47 H11        -4.5833    2.1374   -1.5449 H         1 <0>         0.4382
     48 H12         0.7703    3.5211    2.3707 H         1 <0>         0.1467
     49 H13         2.9152    4.7767    1.3131 H         1 <0>         0.1470
     50 H14         2.3781    5.2174   -1.2134 H         1 <0>         0.2005
     51 H15        -5.2857    3.6522   -2.9129 H         1 <0>         0.1349
     52 H16        -6.2045    3.1238   -1.4626 H         1 <0>         0.1315
     53 H17        -7.8919    3.3009   -3.5798 H         1 <0>         0.4564
     54 H18       -10.5534    8.0400   -3.5391 H         1 <0>         0.1751
     55 H19       -12.1252    6.6259   -5.0504 H         1 <0>         0.2019
     56 H20        -3.5017    0.4378   -2.6896 H         1 <0>         0.0792
     57 H21        -2.4210   -0.4569   -1.5679 H         1 <0>         0.0947
     58 H22        -1.7189    0.5528   -2.8771 H         1 <0>         0.0915
     59 H23         1.2436    1.5483    0.5819 H         1 <0>         0.0793
     60 H24         2.9924    1.6652    0.9756 H         1 <0>         0.0586
     61 H25         2.0310    0.2662    1.5632 H         1 <0>         0.0694
@<TRIPOS>BOND
     1    1    2 1
     2    1   38 1
     3    1   39 1
     4    1   40 1
     5    2    3 1
     6    2   41 1
     7    2   42 1
     8    3    8 ar
     9    3    4 ar
    10    4    5 ar
    11    4   43 1
    12    5    6 ar
    13    5   44 1
    14    6    7 ar
    15    6   45 1
    16    7    8 ar
    17    7   37 1
    18    8    9 1
    19    9   10 am
    20    9   46 1
    21   10   11 2
    22   10   12 1
    23   12   17 1
    24   12   13 2
    25   13   14 1
    26   13   36 1
    27   14   15 1
    28   14   47 1
    29   15   16 2
    30   15   26 1
    31   16   17 1
    32   16   24 1
    33   17   18 1
    34   17   19 1
    35   19   23 1
    36   19   20 2
    37   20   21 1
    38   20   48 1
    39   21   22 2
    40   21   49 1
    41   22   23 1
    42   22   50 1
    43   24   25 3
    44   26   27 1
    45   27   28 1
    46   27   51 1
    47   27   52 1
    48   28   29 2
    49   28   30 am
    50   30   31 1
    51   30   53 1
    52   31   35 1
    53   31   32 2
    54   32   33 1
    55   33   34 2
    56   33   54 1
    57   34   35 1
    58   34   55 1
    59   36   56 1
    60   36   57 1
    61   36   58 1
    62   37   59 1
    63   37   60 1
    64   37   61 1
@<TRIPOS>MOLECULE
ZINC36515152
   80    82     0     0     0
SMALL
USER_CHARGES

@<TRIPOS>ATOM
      1 C1         -1.4799   -0.3574    0.3871 C.3       1 <0>        -0.1546
      2 C2         -1.1214   -1.8033    0.0382 C.3       1 <0>        -0.1251
      3 C3         -0.1764   -1.8183   -1.1649 C.3       1 <0>        -0.1199
      4 C4          0.1821   -3.2642   -1.5138 C.3       1 <0>        -0.1172
      5 C5          1.1272   -3.2793   -2.7170 C.3       1 <0>        -0.1403
      6 C6          1.4857   -4.7252   -3.0658 C.3       1 <0>         0.1176
      7 N1          2.2925   -4.7469   -4.2884 N.am      1 <0>        -0.5935
      8 C7          3.7549   -4.7512   -4.2010 C.3       1 <0>         0.1858
      9 H1          4.0651   -4.2630   -3.2771 H         1 <0>         0.1170
     10 C8          4.2545   -6.1730   -4.2102 C.ar      1 <0>        -0.1736
     11 C9          5.5100   -6.4700   -3.7018 C.ar      1 <0>         0.1395
     12 C10         5.9697   -7.7783   -3.7102 C.ar      1 <0>        -0.1801
     13 C11         5.1737   -8.7896   -4.2267 C.ar      1 <0>         0.1476
     14 C12         3.9178   -8.4927   -4.7343 C.ar      1 <0>        -0.1785
     15 C13         3.4564   -7.1850   -4.7219 C.ar      1 <0>         0.1747
     16 O1          2.2238   -6.8947   -5.2150 O.3       1 <0>        -0.4953
     17 O2          5.6246  -10.0716   -4.2358 O.3       1 <0>        -0.4930
     18 O3          6.2900   -5.4790   -3.1957 O.3       1 <0>        -0.4902
     19 C14         4.3307   -4.0088   -5.3793 C.2       1 <0>         0.5295
     20 O4          3.6859   -3.1352   -5.9196 O.2       1 <0>        -0.5081
     21 N2          5.5624   -4.3156   -5.8326 N.am      1 <0>        -0.7197
     22 C15         6.1562   -3.5383   -6.9232 C.3       1 <0>         0.1533
     23 C16         5.6824   -4.0988   -8.2657 C.3       1 <0>        -0.1268
     24 C17         6.3025   -3.2870   -9.4047 C.3       1 <0>        -0.1165
     25 C18         7.8277   -3.3776   -9.3239 C.3       1 <0>        -0.1223
     26 C19         8.3015   -2.8172   -7.9814 C.3       1 <0>        -0.1151
     27 C20         7.6813   -3.6289   -6.8424 C.3       1 <0>        -0.1256
     28 C21         1.6894   -4.7628   -5.4936 C.2       1 <0>         0.5451
     29 O5          2.3565   -4.7328   -6.5060 O.2       1 <0>        -0.5302
     30 C22         0.1861   -4.8181   -5.5832 C.3       1 <0>        -0.1320
     31 C23        -0.2372   -4.8260   -7.0535 C.3       1 <0>        -0.0591
     32 C24        -1.7405   -4.8812   -7.1431 C.ar      1 <0>        -0.1192
     33 C25        -2.3850   -6.1038   -7.1848 C.ar      1 <0>        -0.0751
     34 C26        -3.7629   -6.1571   -7.2674 C.ar      1 <0>        -0.1499
     35 C27        -4.5002   -4.9826   -7.3081 C.ar      1 <0>         0.1232
     36 C28        -3.8512   -3.7571   -7.2657 C.ar      1 <0>        -0.2057
     37 C29        -2.4734   -3.7092   -7.1778 C.ar      1 <0>        -0.0743
     38 O6         -5.8558   -5.0324   -7.3898 O.3       1 <0>        -0.3188
     39 C30        -6.5498   -3.7837   -7.4276 C.3       1 <0>         0.0270
     40 H2         -0.5716    0.1933    0.6316 H         1 <0>         0.0533
     41 H3         -1.9704    0.1113   -0.4660 H         1 <0>         0.0534
     42 H4         -2.1532   -0.3467    1.2443 H         1 <0>         0.0535
     43 H5         -0.6309   -2.2720    0.8914 H         1 <0>         0.0603
     44 H6         -2.0297   -2.3540   -0.2063 H         1 <0>         0.0608
     45 H7         -0.6669   -1.3496   -2.0181 H         1 <0>         0.0616
     46 H8          0.7319   -1.2676   -0.9204 H         1 <0>         0.0610
     47 H9          0.6726   -3.7329   -0.6606 H         1 <0>         0.0630
     48 H10        -0.7262   -3.8149   -1.7583 H         1 <0>         0.0645
     49 H11         0.6367   -2.8106   -3.5701 H         1 <0>         0.0679
     50 H12         2.0355   -2.7286   -2.4724 H         1 <0>         0.0650
     51 H13         2.0546   -5.1661   -2.2472 H         1 <0>         0.0765
     52 H14         0.5719   -5.2982   -3.2233 H         1 <0>         0.0854
     53 H15         6.9478   -8.0096   -3.3149 H         1 <0>         0.1425
     54 H16         3.2981   -9.2803   -5.1369 H         1 <0>         0.1403
     55 H17         2.2292   -6.5890   -6.1324 H         1 <0>         0.3996
     56 H18         5.4017  -10.5726   -3.4393 H         1 <0>         0.3973
     57 H19         6.2182   -5.3726   -2.2372 H         1 <0>         0.3978
     58 H20         6.0556   -5.0511   -5.4367 H         1 <0>         0.3991
     59 H21         5.8490   -2.4962   -6.8358 H         1 <0>         0.0830
     60 H22         5.9895   -5.1409   -8.3531 H         1 <0>         0.0573
     61 H23         4.5958   -4.0342   -8.3232 H         1 <0>         0.0751
     62 H24         5.9650   -3.6863  -10.3611 H         1 <0>         0.0630
     63 H25         5.9953   -2.2448   -9.3173 H         1 <0>         0.0627
     64 H26         8.1349   -4.4198   -9.4114 H         1 <0>         0.0615
     65 H27         8.2695   -2.7993  -10.1354 H         1 <0>         0.0628
     66 H28         9.3881   -2.8817   -7.9239 H         1 <0>         0.0661
     67 H29         7.9943   -1.7750   -7.8940 H         1 <0>         0.0643
     68 H30         8.0189   -3.2297   -5.8860 H         1 <0>         0.0678
     69 H31         7.9885   -4.6711   -6.9299 H         1 <0>         0.0650
     70 H32        -0.1738   -5.7246   -5.0966 H         1 <0>         0.0984
     71 H33        -0.2397   -3.9459   -5.0872 H         1 <0>         0.0919
     72 H34         0.1227   -3.9195   -7.5401 H         1 <0>         0.0800
     73 H35         0.1886   -5.6982   -7.5495 H         1 <0>         0.0762
     74 H36        -1.8106   -7.0178   -7.1531 H         1 <0>         0.1288
     75 H37        -4.2658   -7.1123   -7.3006 H         1 <0>         0.1300
     76 H38        -4.4229   -2.8414   -7.2972 H         1 <0>         0.1272
     77 H39        -1.9679   -2.7555   -7.1403 H         1 <0>         0.1242
     78 H40        -7.6224   -3.9661   -7.4927 H         1 <0>         0.1005
     79 H41        -6.3315   -3.2192   -6.5211 H         1 <0>         0.0555
     80 H42        -6.2246   -3.2136   -8.2979 H         1 <0>         0.0557
@<TRIPOS>BOND
     1    1    2 1
     2    1   40 1
     3    1   41 1
     4    1   42 1
     5    2    3 1
     6    2   43 1
     7    2   44 1
     8    3    4 1
     9    3   45 1
    10    3   46 1
    11    4    5 1
    12    4   47 1
    13    4   48 1
    14    5    6 1
    15    5   49 1
    16    5   50 1
    17    6    7 1
    18    6   51 1
    19    6   52 1
    20    7    8 1
    21    7   28 am
    22    8    9 1
    23    8   10 1
    24    8   19 1
    25   10   15 ar
    26   10   11 ar
    27   11   12 ar
    28   11   18 1
    29   12   13 ar
    30   12   53 1
    31   13   14 ar
    32   13   17 1
    33   14   15 ar
    34   14   54 1
    35   15   16 1
    36   16   55 1
    37   17   56 1
    38   18   57 1
    39   19   20 2
    40   19   21 am
    41   21   22 1
    42   21   58 1
    43   22   27 1
    44   22   23 1
    45   22   59 1
    46   23   24 1
    47   23   60 1
    48   23   61 1
    49   24   25 1
    50   24   62 1
    51   24   63 1
    52   25   26 1
    53   25   64 1
    54   25   65 1
    55   26   27 1
    56   26   66 1
    57   26   67 1
    58   27   68 1
    59   27   69 1
    60   28   29 2
    61   28   30 1
    62   30   31 1
    63   30   70 1
    64   30   71 1
    65   31   32 1
    66   31   72 1
    67   31   73 1
    68   32   37 ar
    69   32   33 ar
    70   33   34 ar
    71   33   74 1
    72   34   35 ar
    73   34   75 1
    74   35   36 ar
    75   35   38 1
    76   36   37 ar
    77   36   76 1
    78   37   77 1
    79   38   39 1
    80   39   78 1
    81   39   79 1
    82   39   80 1
@<TRIPOS>MOLECULE
ZINC39326847
   69    72     0     0     0
SMALL
USER_CHARGES

@<TRIPOS>ATOM
      1 C1         -0.2818   -3.8149   -4.7601 C.3       1 <0>         0.0216
      2 O1         -0.4817   -3.4791   -3.3856 O.3       1 <0>        -0.2996
      3 C2          0.1419   -2.3613   -2.9261 C.ar      1 <0>         0.1513
      4 C3          0.9221   -1.6046   -3.7813 C.ar      1 <0>        -0.2244
      5 C4          1.5624   -0.4555   -3.3083 C.ar      1 <0>         0.0084
      6 C5          1.4115   -0.0753   -1.9715 C.ar      1 <0>        -0.2156
      7 C6          0.6299   -0.8365   -1.1217 C.ar      1 <0>         0.1504
      8 C7         -0.0104   -1.9770   -1.5973 C.ar      1 <0>         0.0361
      9 O2         -0.7831   -2.7203   -0.7601 O.3       1 <0>        -0.3126
     10 C8         -0.1353   -3.7727   -0.0426 C.3       1 <0>         0.0352
     11 O3          0.4829   -0.4676    0.1790 O.3       1 <0>        -0.3010
     12 C9          1.1642    0.7165    0.5984 C.3       1 <0>         0.0236
     13 C10         2.3943    0.3523   -4.2159 C.2       1 <0>        -0.0688
     14 C11         3.0788   -0.2427   -5.2094 C.2       1 <0>        -0.1133
     15 C12         3.1481   -1.7513   -5.3215 C.3       1 <0>         0.0909
     16 N1          4.5318   -2.0908   -5.7010 N.3       1 <0>        -0.6711
     17 C13         4.8555   -1.5448   -7.0201 C.3       1 <0>         0.1031
     18 C14         4.6255   -0.0562   -7.0766 C.2       1 <0>        -0.1793
     19 C15         3.7858    0.5514   -6.2354 C.2       1 <0>         0.1028
     20 O4          3.5613    1.8871   -6.2872 O.3       1 <0>        -0.2476
     21 C16         3.8361    2.5721   -7.4107 C.2       1 <0>         0.4408
     22 C17         4.6936    2.0742   -8.3364 C.2       1 <0>        -0.2794
     23 C18         5.3677    0.7424   -8.1214 C.3       1 <0>         0.0836
     24 H1          5.3696    0.1917   -9.0620 H         1 <0>         0.0983
     25 C19         6.7897    0.9543   -7.6696 C.ar      1 <0>        -0.0005
     26 C20         7.0448    1.6199   -6.4853 C.ar      1 <0>        -0.2160
     27 C21         8.3518    1.8173   -6.0663 C.ar      1 <0>         0.1514
     28 C22         9.4060    1.3445   -6.8386 C.ar      1 <0>         0.0277
     29 C23         9.1453    0.6754   -8.0285 C.ar      1 <0>         0.1533
     30 C24         7.8353    0.4775   -8.4379 C.ar      1 <0>        -0.2251
     31 O5         10.1735    0.2108   -8.7878 O.3       1 <0>        -0.3015
     32 C25         9.8313   -0.4674   -9.9982 C.3       1 <0>         0.0240
     33 O6         10.6902    1.5366   -6.4311 O.3       1 <0>        -0.3127
     34 C26        11.2679    0.5223   -5.6069 C.3       1 <0>         0.0357
     35 O7          8.6017    2.4731   -4.9014 O.3       1 <0>        -0.3010
     36 C27         7.4698    2.9316   -4.1593 C.3       1 <0>         0.0268
     37 C28         4.9677    2.8250   -9.5246 C.1       1 <0>         0.2705
     38 N2          5.1852    3.4207  -10.4672 N.1       1 <0>        -0.4414
     39 N3          3.2412    3.7906   -7.6242 N.pl3     1 <0>        -0.8287
     40 H2         -0.6403   -3.0000   -5.3891 H         1 <0>         0.0582
     41 H3          0.7805   -3.9756   -4.9440 H         1 <0>         0.0595
     42 H4         -0.8331   -4.7252   -4.9956 H         1 <0>         0.1056
     43 H5          1.0369   -1.9014   -4.8134 H         1 <0>         0.1438
     44 H6          1.9051    0.8117   -1.6028 H         1 <0>         0.1383
     45 H7          0.2971   -4.4815   -0.7488 H         1 <0>         0.0456
     46 H8          0.6543   -3.3544    0.5817 H         1 <0>         0.0449
     47 H9         -0.8631   -4.2850    0.5867 H         1 <0>         0.0938
     48 H10         0.9632    0.8966    1.6544 H         1 <0>         0.1047
     49 H11         2.2366    0.5909    0.4489 H         1 <0>         0.0578
     50 H12         0.8125    1.5651    0.0117 H         1 <0>         0.0587
     51 H13         2.4549    1.4225   -4.0840 H         1 <0>         0.1336
     52 H14         2.9028   -2.2074   -4.3624 H         1 <0>         0.1083
     53 H15         2.4559   -2.0997   -6.0881 H         1 <0>         0.0926
     54 H16         5.1872   -1.7677   -5.0051 H         1 <0>         0.3507
     55 H17         5.9020   -1.7519   -7.2438 H         1 <0>         0.0961
     56 H18         4.2300   -2.0301   -7.7693 H         1 <0>         0.0954
     57 H19         6.2249    1.9870   -5.8857 H         1 <0>         0.1290
     58 H20         7.6318   -0.0462   -9.3602 H         1 <0>         0.1357
     59 H21        10.7417   -0.7853  -10.5064 H         1 <0>         0.1036
     60 H22         9.2213   -1.3403   -9.7656 H         1 <0>         0.0583
     61 H23         9.2699    0.2060  -10.6458 H         1 <0>         0.0578
     62 H24        11.2701   -0.4256   -6.1450 H         1 <0>         0.0444
     63 H25        12.2915    0.7989   -5.3539 H         1 <0>         0.0923
     64 H26        10.6828    0.4199   -4.6929 H         1 <0>         0.0437
     65 H27         7.8087    3.4364   -3.2546 H         1 <0>         0.1030
     66 H28         6.8931    3.6271   -4.7690 H         1 <0>         0.0552
     67 H29         6.8443    2.0812   -3.8882 H         1 <0>         0.0554
     68 H30         2.6268    4.1522   -6.9664 H         1 <0>         0.4115
     69 H31         3.4351    4.2900   -8.4328 H         1 <0>         0.4264
@<TRIPOS>BOND
     1    1    2 1
     2    1   40 1
     3    1   41 1
     4    1   42 1
     5    2    3 1
     6    3    8 ar
     7    3    4 ar
     8    4    5 ar
     9    4   43 1
    10    5    6 ar
    11    5   13 1
    12    6    7 ar
    13    6   44 1
    14    7    8 ar
    15    7   11 1
    16    8    9 1
    17    9   10 1
    18   10   45 1
    19   10   46 1
    20   10   47 1
    21   11   12 1
    22   12   48 1
    23   12   49 1
    24   12   50 1
    25   13   14 2
    26   13   51 1
    27   14   19 1
    28   14   15 1
    29   15   16 1
    30   15   52 1
    31   15   53 1
    32   16   17 1
    33   16   54 1
    34   17   18 1
    35   17   55 1
    36   17   56 1
    37   18   23 1
    38   18   19 2
    39   19   20 1
    40   20   21 1
    41   21   22 2
    42   21   39 1
    43   22   23 1
    44   22   37 1
    45   23   24 1
    46   23   25 1
    47   25   30 ar
    48   25   26 ar
    49   26   27 ar
    50   26   57 1
    51   27   28 ar
    52   27   35 1
    53   28   29 ar
    54   28   33 1
    55   29   30 ar
    56   29   31 1
    57   30   58 1
    58   31   32 1
    59   32   59 1
    60   32   60 1
    61   32   61 1
    62   33   34 1
    63   34   62 1
    64   34   63 1
    65   34   64 1
    66   35   36 1
    67   36   65 1
    68   36   66 1
    69   36   67 1
    70   37   38 3
    71   39   68 1
    72   39   69 1
@<TRIPOS>MOLECULE
ZINC36604948
   67    69     0     0     0
SMALL
USER_CHARGES

@<TRIPOS>ATOM
      1 C1         -4.2007   -2.1154    1.9347 C.3       1 <0>        -0.1266
      2 C2         -3.3201   -3.3284    1.7792 C.ar      1 <0>        -0.0269
      3 C3         -3.3170   -4.0322    0.5894 C.ar      1 <0>        -0.1413
      4 C4         -2.5092   -5.1448    0.4466 C.ar      1 <0>        -0.0218
      5 C5         -1.7043   -5.5535    1.4935 C.ar      1 <0>        -0.6672
      6 C6         -1.7068   -4.8492    2.6830 C.ar      1 <0>        -0.0146
      7 C7         -2.5113   -3.7340    2.8243 C.ar      1 <0>        -0.1373
      8 S1         -0.6755   -6.9724    1.3120 S.o2      1 <0>         2.4662
      9 O1         -0.4956   -7.4614    2.6340 O.2       1 <0>        -0.9007
     10 O2         -1.3235   -7.7666    0.3278 O.2       1 <0>        -0.9338
     11 C8          0.8929   -6.3313    0.6642 C.3       1 <0>        -0.3621
     12 N1          1.5163   -5.4627    1.6657 N.am      1 <0>        -0.7016
     13 C9          2.4402   -5.9628    2.5100 C.2       1 <0>         0.5107
     14 O3          2.7555   -7.1319    2.4406 O.2       1 <0>        -0.4781
     15 C10         3.0816   -5.0693    3.5402 C.3       1 <0>         0.1780
     16 H1          3.6670   -4.2986    3.0389 H         1 <0>         0.1233
     17 C11         2.0108   -4.4208    4.3791 C.ar      1 <0>        -0.1339
     18 C12         1.1574   -5.2044    5.1412 C.ar      1 <0>         0.1817
     19 C13         0.1720   -4.6076    5.9132 C.ar      1 <0>        -0.1703
     20 C14         0.0403   -3.2271    5.9234 C.ar      1 <0>         0.1478
     21 C15         0.8943   -2.4435    5.1621 C.ar      1 <0>        -0.1765
     22 C16         1.8824   -3.0400    4.3934 C.ar      1 <0>         0.1506
     23 O4          2.7223   -2.2719    3.6510 O.3       1 <0>        -0.4890
     24 O5         -0.9259   -2.6423    6.6792 O.3       1 <0>        -0.4954
     25 O6          1.2864   -6.5571    5.1312 O.3       1 <0>        -0.4710
     26 N2          3.9592   -5.8672    4.4001 N.am      1 <0>        -0.5300
     27 C17         4.8700   -6.7638    3.8305 C.ar      1 <0>         0.1672
     28 C18         5.0206   -6.8205    2.4512 C.ar      1 <0>        -0.1147
     29 C19         5.9208   -7.7063    1.8921 C.ar      1 <0>        -0.0958
     30 C20         6.6717   -8.5362    2.7042 C.ar      1 <0>        -0.1424
     31 C21         6.5241   -8.4822    4.0781 C.ar      1 <0>        -0.0906
     32 C22         5.6294   -7.5949    4.6437 C.ar      1 <0>        -0.2399
     33 C23         3.8894   -5.7376    5.7398 C.2       1 <0>         0.5051
     34 O7          3.1935   -4.8735    6.2300 O.2       1 <0>        -0.4916
     35 C24         4.6759   -6.6662    6.6287 C.3       1 <0>        -0.1575
     36 C25         4.3388   -6.3776    8.0930 C.3       1 <0>        -0.0863
     37 C26         5.0404   -7.4004    8.9889 C.3       1 <0>        -0.1516
     38 C27         4.8135   -4.9696    8.4577 C.3       1 <0>        -0.1560
     39 H2         -3.6550   -1.2270    1.6169 H         1 <0>         0.0798
     40 H3         -5.0931   -2.2330    1.3200 H         1 <0>         0.0734
     41 H4         -4.4911   -2.0089    2.9800 H         1 <0>         0.0741
     42 H5         -3.9458   -3.7129   -0.2286 H         1 <0>         0.1334
     43 H6         -2.5072   -5.6951   -0.4827 H         1 <0>         0.1408
     44 H7         -1.0782   -5.1686    3.5011 H         1 <0>         0.1378
     45 H8         -2.5105   -3.1816    3.7523 H         1 <0>         0.1338
     46 H9          1.5601   -7.1632    0.4388 H         1 <0>         0.1566
     47 H10         0.7042   -5.7604   -0.2450 H         1 <0>         0.1457
     48 H11         1.2642   -4.5277    1.7212 H         1 <0>         0.4094
     49 H12        -0.4931   -5.2179    6.5061 H         1 <0>         0.1380
     50 H13         0.7915   -1.3684    5.1697 H         1 <0>         0.1383
     51 H14         2.4045   -2.0946    2.7551 H         1 <0>         0.3893
     52 H15        -0.6440   -2.4245    7.5782 H         1 <0>         0.3968
     53 H16         1.9265   -6.8959    5.7720 H         1 <0>         0.3795
     54 H17         4.4342   -6.1728    1.8163 H         1 <0>         0.1127
     55 H18         6.0381   -7.7511    0.8194 H         1 <0>         0.1216
     56 H19         7.3747   -9.2282    2.2646 H         1 <0>         0.1204
     57 H20         7.1120   -9.1317    4.7097 H         1 <0>         0.1253
     58 H21         5.5176   -7.5503    5.7169 H         1 <0>         0.1916
     59 H22         4.4187   -7.6989    6.3934 H         1 <0>         0.1200
     60 H23         5.7421   -6.5106    6.4638 H         1 <0>         0.1234
     61 H24         3.2607   -6.4466    8.2380 H         1 <0>         0.0773
     62 H25         6.1185   -7.3315    8.8438 H         1 <0>         0.0576
     63 H26         4.8003   -7.1949   10.0321 H         1 <0>         0.0613
     64 H27         4.7023   -8.4035    8.7291 H         1 <0>         0.0575
     65 H28         5.8916   -4.9007    8.3126 H         1 <0>         0.0489
     66 H29         4.3137   -4.2410    7.8194 H         1 <0>         0.0760
     67 H30         4.5734   -4.7641    9.5009 H         1 <0>         0.0539
@<TRIPOS>BOND
     1    1    2 1
     2    1   39 1
     3    1   40 1
     4    1   41 1
     5    2    7 ar
     6    2    3 ar
     7    3    4 ar
     8    3   42 1
     9    4    5 ar
    10    4   43 1
    11    5    6 ar
    12    5    8 1
    13    6    7 ar
    14    6   44 1
    15    7   45 1
    16    8    9 2
    17    8   10 2
    18    8   11 1
    19   11   12 1
    20   11   46 1
    21   11   47 1
    22   12   13 am
    23   12   48 1
    24   13   14 2
    25   13   15 1
    26   15   16 1
    27   15   17 1
    28   15   26 1
    29   17   22 ar
    30   17   18 ar
    31   18   19 ar
    32   18   25 1
    33   19   20 ar
    34   19   49 1
    35   20   21 ar
    36   20   24 1
    37   21   22 ar
    38   21   50 1
    39   22   23 1
    40   23   51 1
    41   24   52 1
    42   25   53 1
    43   26   27 1
    44   26   33 am
    45   27   32 ar
    46   27   28 ar
    47   28   29 ar
    48   28   54 1
    49   29   30 ar
    50   29   55 1
    51   30   31 ar
    52   30   56 1
    53   31   32 ar
    54   31   57 1
    55   32   58 1
    56   33   34 2
    57   33   35 1
    58   35   36 1
    59   35   59 1
    60   35   60 1
    61   36   37 1
    62   36   38 1
    63   36   61 1
    64   37   62 1
    65   37   63 1
    66   37   64 1
    67   38   65 1
    68   38   66 1
    69   38   67 1
@<TRIPOS>MOLECULE
ZINC12888541
   80    83     0     0     0
SMALL
USER_CHARGES
[2-[(8S,9R,10R,11S,13S,14S,17R)-11,17-dihydroxy-10,13-dimethyl-3-oxo-2,6,7,8,9,11,12,14,15,16-decahydro-1H-cyclopenta[a]phenanthren-17-yl]-2-oxo-ethyl] 4-oxo-4-(sec-butylamino)butanoate
@<TRIPOS>ATOM
      1 C1         -3.8146   -6.2169    1.6262 C.3       1 <0>        -0.1541
      2 C2         -4.2360   -5.8498    3.0504 C.3       1 <0>        -0.1326
      3 C3         -4.3736   -4.3303    3.1658 C.3       1 <0>         0.1389
      4 H1         -5.0621   -3.9688    2.4020 H         1 <0>         0.0897
      5 C4         -4.9145   -3.9710    4.5512 C.3       1 <0>        -0.1653
      6 N1         -3.0622   -3.7055    2.9764 N.am      1 <0>        -0.7240
      7 C5         -2.9787   -2.4340    2.5371 C.2       1 <0>         0.5159
      8 O1         -3.9892   -1.8073    2.2986 O.2       1 <0>        -0.5374
      9 C6         -1.6296   -1.7912    2.3423 C.3       1 <0>        -0.1315
     10 C7         -1.8154   -0.3576    1.8411 C.3       1 <0>        -0.0976
     11 C8         -0.4664    0.2852    1.6463 C.2       1 <0>         0.4651
     12 O2          0.5404   -0.3393    1.8840 O.2       1 <0>        -0.5072
     13 O3         -0.3832    1.5514    1.2088 O.3       1 <0>        -0.3364
     14 C9          0.9487    2.1059    1.0443 C.3       1 <0>         0.0214
     15 C10         0.8443    3.5255    0.5496 C.2       1 <0>         0.3321
     16 O4         -0.2407    4.0191    0.3557 O.2       1 <0>        -0.3981
     17 C11         2.0912    4.3276    0.2974 C.3       1 <0>         0.1012
     18 C12         2.4948    4.2476   -1.1945 C.3       1 <0>        -0.1421
     19 C13         2.8097    5.6979   -1.6464 C.3       1 <0>        -0.1128
     20 C14         2.9184    6.4788   -0.3265 C.3       1 <0>        -0.0808
     21 H2          3.9072    6.3008    0.1232 H         1 <0>         0.0890
     22 C15         1.8145    5.8210    0.5290 C.3       1 <0>        -0.0317
     23 C16         1.9417    6.2810    1.9598 C.3       1 <0>        -0.1425
     24 C17         2.7537    7.5961    2.0160 C.3       1 <0>         0.1242
     25 H3          3.8156    7.3613    1.8960 H         1 <0>         0.0540
     26 C18         2.3004    8.5281    0.9101 C.3       1 <0>        -0.0660
     27 H4          1.1918    8.4278    0.9281 H         1 <0>         0.0733
     28 C19         2.6690    7.9746   -0.4572 C.3       1 <0>        -0.0614
     29 H5          1.8475    8.1552   -1.1485 H         1 <0>         0.0818
     30 C20         3.9339    8.6001   -1.0377 C.3       1 <0>        -0.1133
     31 C21         3.7923   10.1115   -1.1354 C.3       1 <0>        -0.0976
     32 C22         3.5305   10.6458    0.2586 C.2       1 <0>        -0.0141
     33 C23         4.2652   11.6867    0.6581 C.2       1 <0>        -0.2465
     34 C24         4.0690   12.2793    1.9836 C.2       1 <0>         0.3876
     35 O5          4.9020   13.0059    2.4851 O.2       1 <0>        -0.4621
     36 C25         2.7763   11.9434    2.7001 C.3       1 <0>        -0.1665
     37 C26         2.5666   10.4328    2.5591 C.3       1 <0>        -0.0845
     38 C27         2.4776   10.0057    1.1050 C.3       1 <0>        -0.0100
     39 C28         1.1521   10.6159    0.5977 C.3       1 <0>        -0.1542
     40 O6          2.5417    8.1360    3.3210 O.3       1 <0>        -0.5586
     41 C29         0.4201    6.1366   -0.0170 C.3       1 <0>        -0.1365
     42 O7          3.1592    3.8794    1.1270 O.3       1 <0>        -0.5340
     43 H6         -2.8579   -5.7471    1.3978 H         1 <0>         0.0544
     44 H7         -3.7166   -7.2994    1.5439 H         1 <0>         0.0577
     45 H8         -4.5690   -5.8659    0.9221 H         1 <0>         0.0560
     46 H9         -3.4816   -6.2008    3.7545 H         1 <0>         0.0685
     47 H10        -5.1927   -6.3196    3.2788 H         1 <0>         0.0799
     48 H11        -5.8903   -4.4360    4.6921 H         1 <0>         0.0670
     49 H12        -4.2261   -4.3326    5.3150 H         1 <0>         0.0571
     50 H13        -5.0126   -2.8886    4.6334 H         1 <0>         0.0612
     51 H14        -2.2540   -4.2068    3.1672 H         1 <0>         0.4014
     52 H15        -1.0580   -2.3611    1.6097 H         1 <0>         0.1047
     53 H16        -1.0932   -1.7778    3.2911 H         1 <0>         0.1049
     54 H17        -2.3870    0.2122    2.5737 H         1 <0>         0.1174
     55 H18        -2.3519   -0.3711    0.8924 H         1 <0>         0.1175
     56 H19         1.4258    2.0934    1.9230 H         1 <0>         0.0957
     57 H20         1.5039    1.5089    0.3208 H         1 <0>         0.1039
     58 H21         3.3786    3.6188   -1.3075 H         1 <0>         0.0856
     59 H22         1.6699    3.8431   -1.7823 H         1 <0>         0.0761
     60 H23         3.7592    5.7275   -2.1856 H         1 <0>         0.0735
     61 H24         2.0129    6.0917   -2.2726 H         1 <0>         0.0750
     62 H25         2.4469    5.5279    2.5665 H         1 <0>         0.0798
     63 H26         0.9498    6.4635    2.3831 H         1 <0>         0.0738
     64 H27         4.7786    8.3569   -0.3941 H         1 <0>         0.0666
     65 H28         4.1063    8.1887   -2.0319 H         1 <0>         0.0724
     66 H29         4.7146   10.5440   -1.5283 H         1 <0>         0.0798
     67 H30         2.9634   10.3656   -1.7939 H         1 <0>         0.0849
     68 H31         5.0135   12.0957   -0.0072 H         1 <0>         0.1316
     69 H32         2.8560   12.1918    3.6655 H         1 <0>         0.0808
     70 H33         1.9480   12.4973    2.2713 H         1 <0>         0.0964
     71 H34         3.4394    9.9551    3.0121 H         1 <0>         0.0791
     72 H35         1.6557   10.1537    3.0814 H         1 <0>         0.0903
     73 H36         1.0243   10.3799   -0.4588 H         1 <0>         0.0574
     74 H37         0.3199   10.2006    1.1660 H         1 <0>         0.0655
     75 H38         1.1769   11.6978    0.7279 H         1 <0>         0.0599
     76 H39         2.8258    7.5534    4.0386 H         1 <0>         0.3749
     77 H40        -0.3315    5.8511    0.7190 H         1 <0>         0.0766
     78 H41         0.3426    7.2047   -0.2201 H         1 <0>         0.0550
     79 H42         0.2561    5.5787   -0.9390 H         1 <0>         0.0625
     80 H43         3.3923    2.9496    1.0001 H         1 <0>         0.3807
@<TRIPOS>BOND
     1    1    2 1
     2    1   43 1
     3    1   44 1
     4    1   45 1
     5    2    3 1
     6    2   46 1
     7    2   47 1
     8    3    4 1
     9    3    5 1
    10    3    6 1
    11    5   48 1
    12    5   49 1
    13    5   50 1
    14    6    7 am
    15    6   51 1
    16    7    8 2
    17    7    9 1
    18    9   10 1
    19    9   52 1
    20    9   53 1
    21   10   11 1
    22   10   54 1
    23   10   55 1
    24   11   12 2
    25   11   13 1
    26   13   14 1
    27   14   15 1
    28   14   56 1
    29   14   57 1
    30   15   16 2
    31   15   17 1
    32   17   22 1
    33   17   18 1
    34   17   42 1
    35   18   19 1
    36   18   58 1
    37   18   59 1
    38   19   20 1
    39   19   60 1
    40   19   61 1
    41   20   21 1
    42   20   28 1
    43   20   22 1
    44   22   23 1
    45   22   41 1
    46   23   24 1
    47   23   62 1
    48   23   63 1
    49   24   25 1
    50   24   26 1
    51   24   40 1
    52   26   27 1
    53   26   38 1
    54   26   28 1
    55   28   29 1
    56   28   30 1
    57   30   31 1
    58   30   64 1
    59   30   65 1
    60   31   32 1
    61   31   66 1
    62   31   67 1
    63   32   38 1
    64   32   33 2
    65   33   34 1
    66   33   68 1
    67   34   35 2
    68   34   36 1
    69   36   37 1
    70   36   69 1
    71   36   70 1
    72   37   38 1
    73   37   71 1
    74   37   72 1
    75   38   39 1
    76   39   73 1
    77   39   74 1
    78   39   75 1
    79   40   76 1
    80   41   77 1
    81   41   78 1
    82   41   79 1
    83   42   80 1
@<TRIPOS>MOLECULE
ZINC16758442
   52    54     0     0     0
SMALL
USER_CHARGES
[2-[(3-amino-3-oxo-propyl)-(4-fluorophenyl)amino]-2-oxo-ethyl] 2-[(3-chlorobenzothiophene-2-carbonyl)amino]acetate
@<TRIPOS>ATOM
      1 C1          0.0854    1.1270   -1.4079 C.ar      1 <0>        -0.1226
      2 C2         -1.1216    1.7461   -1.1054 C.ar      1 <0>        -0.0691
      3 C3         -1.1510    3.1086   -0.8885 C.ar      1 <0>        -0.0831
      4 C4          0.0156    3.8373   -0.9846 C.ar      1 <0>        -0.0910
      5 C5          1.2570    3.2346   -1.2966 C.ar      1 <0>        -0.1110
      6 C6          1.2418    1.8317   -1.5066 C.ar      1 <0>        -0.0514
      7 C7          2.3554    4.1130   -1.3582 C.2       1 <0>         0.0300
      8 C8          2.1749    5.4413   -1.1243 C.2       1 <0>        -0.2024
      9 S1          0.4246    5.5543   -0.7963 S.3       1 <0>         0.1048
     10 C9          3.1744    6.5168   -1.1384 C.2       1 <0>         0.6084
     11 O1          4.3386    6.2622   -1.3838 O.2       1 <0>        -0.4949
     12 N1          2.8023    7.7860   -0.8794 N.am      1 <0>        -0.7183
     13 C10         3.7996    8.8591   -0.8934 C.3       1 <0>         0.1317
     14 C11         3.1301   10.1712   -0.5751 C.2       1 <0>         0.4645
     15 O2          1.9419   10.2064   -0.3588 O.2       1 <0>        -0.4985
     16 O3          3.8539   11.3009   -0.5320 O.3       1 <0>        -0.3239
     17 C12         3.1429   12.5277   -0.2193 C.3       1 <0>         0.0502
     18 C13         4.1112   13.6824   -0.2158 C.2       1 <0>         0.5194
     19 O4          5.2850   13.4903   -0.4534 O.2       1 <0>        -0.4887
     20 N2          3.6729   14.9286    0.0515 N.am      1 <0>        -0.5676
     21 C14         2.2409   15.1780    0.2340 C.3       1 <0>         0.1176
     22 C15         1.8781   15.0095    1.7108 C.3       1 <0>        -0.1679
     23 C16         0.4050   15.2660    1.8986 C.2       1 <0>         0.5222
     24 O5         -0.2866   15.5552    0.9452 O.2       1 <0>        -0.5395
     25 N3         -0.1439   15.1742    3.1261 N.am      1 <0>        -0.8536
     26 C17         4.5863   15.9850    0.1546 C.ar      1 <0>         0.1257
     27 C18         5.4843   16.0268    1.2129 C.ar      1 <0>        -0.0774
     28 C19         6.3882   17.0665    1.3096 C.ar      1 <0>        -0.1415
     29 C20         6.3917   18.0729    0.3584 C.ar      1 <0>         0.1050
     30 C21         5.4932   18.0360   -0.6946 C.ar      1 <0>        -0.1415
     31 C22         4.5915   16.9950   -0.7981 C.ar      1 <0>        -0.0853
     32 F1          7.2733   19.0918    0.4576 F         1 <0>        -0.1350
     33 Cl1         3.9369    3.5028   -1.7325 Cl        1 <0>        -0.0166
     34 H1          0.1032    0.0598   -1.5729 H         1 <0>         0.1360
     35 H2         -2.0291    1.1646   -1.0368 H         1 <0>         0.1426
     36 H3         -2.0817    3.6011   -0.6487 H         1 <0>         0.1404
     37 H4          2.1607    1.3183   -1.7482 H         1 <0>         0.1339
     38 H5          1.8742    7.9890   -0.6837 H         1 <0>         0.4128
     39 H6          4.5666    8.6521   -0.1471 H         1 <0>         0.1237
     40 H7          4.2587    8.9155   -1.8804 H         1 <0>         0.1239
     41 H8          2.3720   12.7023   -0.9698 H         1 <0>         0.1106
     42 H9          2.6798   12.4389    0.7634 H         1 <0>         0.1071
     43 H10         2.0055   16.1935   -0.0844 H         1 <0>         0.1022
     44 H11         1.6694   14.4681   -0.3638 H         1 <0>         0.0968
     45 H12         2.1135   13.9940    2.0292 H         1 <0>         0.0985
     46 H13         2.4497   15.7194    2.3087 H         1 <0>         0.1061
     47 H14         0.4092   14.9429    3.8887 H         1 <0>         0.4034
     48 H15        -1.0921   15.3393    3.2470 H         1 <0>         0.4056
     49 H16         5.4788   15.2444    1.9574 H         1 <0>         0.1341
     50 H17         7.0900   17.0969    2.1299 H         1 <0>         0.1423
     51 H18         5.4978   18.8217   -1.4357 H         1 <0>         0.1431
     52 H19         3.8912   16.9665   -1.6198 H         1 <0>         0.1384
@<TRIPOS>BOND
     1    1    6 ar
     2    1    2 ar
     3    1   34 1
     4    2    3 ar
     5    2   35 1
     6    3    4 ar
     7    3   36 1
     8    4    9 1
     9    4    5 ar
    10    5    6 ar
    11    5    7 1
    12    6   37 1
    13    7    8 2
    14    7   33 1
    15    8    9 1
    16    8   10 1
    17   10   11 2
    18   10   12 am
    19   12   13 1
    20   12   38 1
    21   13   14 1
    22   13   39 1
    23   13   40 1
    24   14   15 2
    25   14   16 1
    26   16   17 1
    27   17   18 1
    28   17   41 1
    29   17   42 1
    30   18   19 2
    31   18   20 am
    32   20   21 1
    33   20   26 1
    34   21   22 1
    35   21   43 1
    36   21   44 1
    37   22   23 1
    38   22   45 1
    39   22   46 1
    40   23   24 2
    41   23   25 am
    42   25   47 1
    43   25   48 1
    44   26   31 ar
    45   26   27 ar
    46   27   28 ar
    47   27   49 1
    48   28   29 ar
    49   28   50 1
    50   29   30 ar
    51   29   32 1
    52   30   31 ar
    53   30   51 1
    54   31   52 1
@<TRIPOS>MOLECULE
ZINC25979847
   57    60     0     0     0
SMALL
USER_CHARGES
methyl (2R)-3-(1H-indol-3-yl)-2-[[3-(2-thienylmethylsulfamoyl)benzoyl]amino]propanoate
@<TRIPOS>ATOM
      1 C1         -3.1233    3.0207   -3.0137 C.3       1 <0>         0.0317
      2 O1         -2.8167    2.7062   -1.6297 O.3       1 <0>        -0.3558
      3 C2         -1.6743    2.0420   -1.3944 C.2       1 <0>         0.4472
      4 O2         -0.9543    1.7335   -2.3143 O.2       1 <0>        -0.4958
      5 C3         -1.2896    1.6810    0.0173 C.3       1 <0>         0.1675
      6 H1         -1.1528    2.5963    0.6119 H         1 <0>         0.1312
      7 C4         -2.3701    0.7857    0.6272 C.3       1 <0>        -0.0434
      8 C5         -2.0477    0.5252    2.0761 C.2       1 <0>        -0.1775
      9 C6         -1.3966   -0.5396    2.5703 C.2       1 <0>         0.0551
     10 N1         -1.2875   -0.4301    3.9299 N.pl3     1 <0>        -0.6049
     11 H2         -0.7741   -1.2145    4.5054 H         1 <0>         0.4424
     12 C7         -1.8884    0.7334    4.3555 C.ar      1 <0>         0.1091
     13 C8         -2.3909    1.3829    3.2130 C.ar      1 <0>        -0.1009
     14 C9         -3.0582    2.6022    3.3418 C.ar      1 <0>        -0.0714
     15 C10        -3.2202    3.1595    4.5791 C.ar      1 <0>        -0.1447
     16 C11        -2.7268    2.5226    5.7092 C.ar      1 <0>        -0.0972
     17 C12        -2.0648    1.3187    5.6048 C.ar      1 <0>        -0.1324
     18 N2         -0.0111    0.9658    0.0074 N.am      1 <0>        -0.7129
     19 C13         1.1468    1.6555   -0.0000 C.2       1 <0>         0.5698
     20 O3          1.1303    2.8709    0.0067 O.2       1 <0>        -0.5260
     21 C14         2.4371    0.9338   -0.0162 C.ar      1 <0>        -0.1464
     22 C15         2.4595   -0.4620   -0.0181 C.ar      1 <0>        -0.0309
     23 C16         3.6667   -1.1292   -0.0376 C.ar      1 <0>        -0.1425
     24 C17         4.8537   -0.4180   -0.0451 C.ar      1 <0>         0.0009
     25 C18         4.8385    0.9653   -0.0385 C.ar      1 <0>        -0.6894
     26 C19         3.6378    1.6449   -0.0238 C.ar      1 <0>         0.0397
     27 S1          6.3557    1.8612   -0.0482 S.o2      1 <0>         2.6924
     28 O4          7.3334    0.9981   -0.6125 O.2       1 <0>        -0.9485
     29 O5          6.0671    3.1428   -0.5899 O.2       1 <0>        -0.9469
     30 N3          6.7921    2.1022    1.5310 N.pl3     1 <0>        -1.1191
     31 C20         7.1301    0.9574    2.3805 C.3       1 <0>         0.2028
     32 C21         7.8330    1.4432    3.6218 C.2       1 <0>        -0.1632
     33 C22         7.3032    1.8134    4.8132 C.2       1 <0>        -0.1358
     34 C23         8.1504    2.2269    5.8241 C.2       1 <0>        -0.1640
     35 C24         9.4852    2.2601    5.5907 C.2       1 <0>        -0.1645
     36 S2          9.5791    1.6880    3.9022 S.3       1 <0>         0.0597
     37 H3         -4.0798    3.5616   -3.0635 H         1 <0>         0.1058
     38 H4         -3.1983    2.0889   -3.5935 H         1 <0>         0.0642
     39 H5         -2.3240    3.6498   -3.4325 H         1 <0>         0.0646
     40 H6         -3.3464    1.2870    0.5532 H         1 <0>         0.1039
     41 H7         -2.4059   -0.1691    0.0821 H         1 <0>         0.0838
     42 H8         -1.0139   -1.3603    1.9817 H         1 <0>         0.1651
     43 H9         -3.4450    3.1034    2.4668 H         1 <0>         0.1228
     44 H10        -3.7361    4.1031    4.6782 H         1 <0>         0.1229
     45 H11        -2.8627    2.9754    6.6802 H         1 <0>         0.1247
     46 H12        -1.6839    0.8313    6.4901 H         1 <0>         0.1185
     47 H13         0.0038   -0.1341    0.0060 H         1 <0>         0.4211
     48 H14         1.5338   -1.0182   -0.0077 H         1 <0>         0.1336
     49 H15         3.6854   -2.2090   -0.0425 H         1 <0>         0.1425
     50 H16         5.7962   -0.9452   -0.0559 H         1 <0>         0.1471
     51 H17         3.6273    2.7249   -0.0180 H         1 <0>         0.1538
     52 H18         6.6673    3.1000    1.9768 H         1 <0>         0.4486
     53 H19         6.2092    0.4270    2.6644 H         1 <0>         0.0844
     54 H20         7.7916    0.2737    1.8283 H         1 <0>         0.1000
     55 H21         6.2352    1.7830    4.9713 H         1 <0>         0.1344
     56 H22         7.7544    2.5234    6.7842 H         1 <0>         0.1355
     57 H23        10.2845    2.5563    6.2539 H         1 <0>         0.1874
@<TRIPOS>BOND
     1    1    2 1
     2    1   37 1
     3    1   38 1
     4    1   39 1
     5    2    3 1
     6    3    4 2
     7    3    5 1
     8    5    6 1
     9    5    7 1
    10    5   18 1
    11    7    8 1
    12    7   40 1
    13    7   41 1
    14    8   13 1
    15    8    9 2
    16    9   10 1
    17    9   42 1
    18   10   11 1
    19   10   12 1
    20   12   17 ar
    21   12   13 ar
    22   13   14 ar
    23   14   15 ar
    24   14   43 1
    25   15   16 ar
    26   15   44 1
    27   16   17 ar
    28   16   45 1
    29   17   46 1
    30   18   19 am
    31   18   47 1
    32   19   20 2
    33   19   21 1
    34   21   26 ar
    35   21   22 ar
    36   22   23 ar
    37   22   48 1
    38   23   24 ar
    39   23   49 1
    40   24   25 ar
    41   24   50 1
    42   25   26 ar
    43   25   27 1
    44   26   51 1
    45   27   28 2
    46   27   29 2
    47   27   30 1
    48   30   31 1
    49   30   52 1
    50   31   32 1
    51   31   53 1
    52   31   54 1
    53   32   36 1
    54   32   33 2
    55   33   34 1
    56   33   55 1
    57   34   35 2
    58   34   56 1
    59   35   36 1
    60   35   57 1
@<TRIPOS>MOLECULE
ZINC36597132
   72    74     0     0     0
SMALL
USER_CHARGES

@<TRIPOS>ATOM
      1 C1          4.5889   -8.9153    1.1096 C.3       1 <0>        -0.0747
      2 C2          4.8232   -7.4504    0.8448 C.2       1 <0>        -0.0161
      3 C3          5.8861   -6.9262    0.2086 C.2       1 <0>        -0.2248
      4 C4          5.6983   -5.5251    0.1831 C.2       1 <0>        -0.1804
      5 C5          4.5318   -5.2770    0.8052 C.2       1 <0>        -0.0247
      6 O1          4.0034   -6.4473    1.1988 O.3       1 <0>        -0.1715
      7 C6          3.9190   -3.9169    1.0193 C.3       1 <0>         0.1523
      8 N1          2.8983   -3.6747   -0.0033 N.am      1 <0>        -0.5906
      9 C7          3.2556   -2.9865   -1.2462 C.3       1 <0>         0.1463
     10 H1          3.0303   -3.6309   -2.0960 H         1 <0>         0.1337
     11 C8          2.4625   -1.7101   -1.3596 C.ar      1 <0>        -0.0998
     12 C9          2.1070   -1.0141   -0.2187 C.ar      1 <0>        -0.0991
     13 C10         1.3795    0.1571   -0.3193 C.ar      1 <0>        -0.0916
     14 C11         1.0054    0.6350   -1.5606 C.ar      1 <0>        -0.1320
     15 C12         1.3608   -0.0613   -2.7064 C.ar      1 <0>         0.1194
     16 C13         2.0962   -1.2334   -2.6031 C.ar      1 <0>        -0.1464
     17 O2          0.9940    0.4066   -3.9285 O.3       1 <0>        -0.4923
     18 C14         4.7277   -2.6641   -1.2366 C.2       1 <0>         0.5114
     19 O3          5.4380   -3.0991   -0.3551 O.2       1 <0>        -0.4978
     20 N2          5.2548   -1.8923   -2.2077 N.am      1 <0>        -0.7127
     21 C15         6.7012   -1.6651   -2.2586 C.3       1 <0>         0.1772
     22 C16         7.1048   -0.6963   -1.1453 C.3       1 <0>        -0.1604
     23 C17         7.4334   -2.9949   -2.0677 C.3       1 <0>        -0.2344
     24 C18         7.0760   -1.0669   -3.6160 C.3       1 <0>        -0.1162
     25 C19         6.3445   -1.8237   -4.7264 C.3       1 <0>        -0.0661
     26 C20         4.8772   -1.3912   -4.7572 C.3       1 <0>        -0.1642
     27 C21         6.9973   -1.5088   -6.0738 C.3       1 <0>        -0.1433
     28 C22         6.4273   -3.3278   -4.4586 C.3       1 <0>        -0.1718
     29 C23         1.6306   -4.0850    0.1994 C.2       1 <0>         0.5699
     30 O4          1.2859   -4.4738    1.2986 O.2       1 <0>        -0.5133
     31 C24         0.6608   -4.0623   -0.9130 C.ar      1 <0>        -0.1486
     32 C25         1.0157   -3.4965   -2.1404 C.ar      1 <0>        -0.1325
     33 C26         0.1082   -3.4777   -3.1759 C.ar      1 <0>        -0.1519
     34 C27        -1.1596   -4.0201   -3.0013 C.ar      1 <0>         0.1370
     35 C28        -1.5165   -4.5838   -1.7820 C.ar      1 <0>        -0.1575
     36 C29        -0.6128   -4.6117   -0.7434 C.ar      1 <0>        -0.0396
     37 O5         -2.0514   -3.9988   -4.0240 O.3       1 <0>        -0.4973
     38 H2          3.6903   -9.0360    1.7146 H         1 <0>         0.0736
     39 H3          4.4626   -9.4401    0.1627 H         1 <0>         0.0814
     40 H4          5.4444   -9.3294    1.6432 H         1 <0>         0.0842
     41 H5          6.7228   -7.4710   -0.2032 H         1 <0>         0.1420
     42 H6          6.3638   -4.7943   -0.2521 H         1 <0>         0.1638
     43 H7          3.4603   -3.8765    2.0073 H         1 <0>         0.0830
     44 H8          4.6940   -3.1538    0.9471 H         1 <0>         0.1843
     45 H9          2.3978   -1.3863    0.7525 H         1 <0>         0.1299
     46 H10         1.1030    0.6989    0.5731 H         1 <0>         0.1331
     47 H11         0.4364    1.5496   -1.6386 H         1 <0>         0.1336
     48 H12         2.3782   -1.7748   -3.4940 H         1 <0>         0.1332
     49 H13         1.6389    1.0047   -4.3303 H         1 <0>         0.3919
     50 H14         4.6766   -1.4872   -2.8728 H         1 <0>         0.4070
     51 H15         6.9203   -1.1595   -0.1761 H         1 <0>         0.0704
     52 H16         8.1643   -0.4574   -1.2381 H         1 <0>         0.0657
     53 H17         6.5175    0.2181   -1.2288 H         1 <0>         0.0546
     54 H18         7.3277   -3.6004   -2.9679 H         1 <0>         0.1028
     55 H19         8.4900   -2.8043   -1.8801 H         1 <0>         0.0607
     56 H20         7.0040   -3.5275   -1.2191 H         1 <0>         0.0995
     57 H21         6.7880   -0.0159   -3.6419 H         1 <0>         0.0704
     58 H22         8.1523   -1.1525   -3.7661 H         1 <0>         0.0836
     59 H23         4.7820   -0.3976   -4.3193 H         1 <0>         0.0617
     60 H24         4.5266   -1.3686   -5.7890 H         1 <0>         0.0697
     61 H25         4.2776   -2.0993   -4.1852 H         1 <0>         0.0584
     62 H26         8.0426   -1.8169   -6.0519 H         1 <0>         0.0570
     63 H27         6.4761   -2.0480   -6.8649 H         1 <0>         0.0575
     64 H28         6.9383   -0.4373   -6.2646 H         1 <0>         0.0563
     65 H29         6.1021   -3.5337   -3.4389 H         1 <0>         0.0899
     66 H30         5.7825   -3.8577   -5.1597 H         1 <0>         0.0519
     67 H31         7.4564   -3.6634   -4.5865 H         1 <0>         0.0632
     68 H32         2.0004   -3.0742   -2.2766 H         1 <0>         0.1870
     69 H33         0.3818   -3.0405   -4.1248 H         1 <0>         0.1330
     70 H34        -2.5025   -5.0043   -1.6503 H         1 <0>         0.1357
     71 H35        -0.8894   -5.0536    0.2024 H         1 <0>         0.1391
     72 H36        -2.0122   -4.7773   -4.5964 H         1 <0>         0.3950
@<TRIPOS>BOND
     1    1    2 1
     2    1   38 1
     3    1   39 1
     4    1   40 1
     5    2    6 1
     6    2    3 2
     7    3    4 1
     8    3   41 1
     9    4    5 2
    10    4   42 1
    11    5    6 1
    12    5    7 1
    13    7    8 1
    14    7   43 1
    15    7   44 1
    16    8    9 1
    17    8   29 am
    18    9   10 1
    19    9   11 1
    20    9   18 1
    21   11   16 ar
    22   11   12 ar
    23   12   13 ar
    24   12   45 1
    25   13   14 ar
    26   13   46 1
    27   14   15 ar
    28   14   47 1
    29   15   16 ar
    30   15   17 1
    31   16   48 1
    32   17   49 1
    33   18   19 2
    34   18   20 am
    35   20   21 1
    36   20   50 1
    37   21   22 1
    38   21   23 1
    39   21   24 1
    40   22   51 1
    41   22   52 1
    42   22   53 1
    43   23   54 1
    44   23   55 1
    45   23   56 1
    46   24   25 1
    47   24   57 1
    48   24   58 1
    49   25   26 1
    50   25   27 1
    51   25   28 1
    52   26   59 1
    53   26   60 1
    54   26   61 1
    55   27   62 1
    56   27   63 1
    57   27   64 1
    58   28   65 1
    59   28   66 1
    60   28   67 1
    61   29   30 2
    62   29   31 1
    63   31   36 ar
    64   31   32 ar
    65   32   33 ar
    66   32   68 1
    67   33   34 ar
    68   33   69 1
    69   34   35 ar
    70   34   37 1
    71   35   36 ar
    72   35   70 1
    73   36   71 1
    74   37   72 1
@<TRIPOS>MOLECULE
ZINC51347648
   80    83     0     0     0
SMALL
USER_CHARGES

@<TRIPOS>ATOM
      1 C1         -4.9234    2.9476    3.9602 C.3       1 <0>        -0.1506
      2 C2         -3.7062    2.3138    3.2837 C.3       1 <0>        -0.1089
      3 C3         -2.7357    1.8061    4.3519 C.3       1 <0>        -0.1468
      4 C4         -4.1606    1.1431    2.4096 C.3       1 <0>         0.1212
      5 N1         -4.9944    1.6458    1.3150 N.am      1 <0>        -0.7293
      6 C5         -5.5108    0.7882    0.4126 C.2       1 <0>         0.5141
      7 O1         -5.2851   -0.3997    0.5067 O.2       1 <0>        -0.5378
      8 C6         -6.3685    1.3053   -0.7134 C.3       1 <0>        -0.1311
      9 C7         -6.8229    0.1346   -1.5875 C.3       1 <0>        -0.0979
     10 C8         -7.6807    0.6517   -2.7135 C.2       1 <0>         0.4646
     11 O2         -7.9055    1.8351   -2.8073 O.2       1 <0>        -0.5050
     12 O3         -8.1949   -0.2025   -3.6122 O.3       1 <0>        -0.3350
     13 C9         -8.9987    0.3570   -4.6529 C.3       1 <0>         0.0169
     14 C10        -9.4849   -0.7445   -5.5592 C.2       1 <0>         0.3394
     15 O4         -9.1751   -1.8903   -5.3369 O.2       1 <0>        -0.4095
     16 C11       -10.3562   -0.4167   -6.7408 C.3       1 <0>         0.0987
     17 C12       -10.2688   -1.5382   -7.8064 C.3       1 <0>        -0.1489
     18 C13       -11.7321   -1.9815   -8.0922 C.3       1 <0>        -0.1154
     19 C14       -12.5310   -0.7432   -7.6492 C.3       1 <0>        -0.0738
     20 H1        -12.3373    0.0681   -8.3749 H         1 <0>         0.0855
     21 C15       -11.8380   -0.4011   -6.3122 C.3       1 <0>        -0.0259
     22 C16       -12.3359    0.9297   -5.8075 C.3       1 <0>        -0.1411
     23 C17       -13.8605    1.0439   -5.9293 C.3       1 <0>         0.1199
     24 H2        -14.0839    1.7544   -6.7379 H         1 <0>         0.0576
     25 C18       -14.5515   -0.2766   -6.2251 C.3       1 <0>        -0.0627
     26 H3        -14.4357   -0.9598   -5.3808 H         1 <0>         0.0911
     27 C19       -14.0124   -0.9262   -7.4964 C.3       1 <0>        -0.0699
     28 H4        -14.4961   -0.4023   -8.3460 H         1 <0>         0.0693
     29 C20       -14.4370   -2.3864   -7.6019 C.3       1 <0>        -0.1077
     30 C21       -15.8776   -2.5516   -7.1127 C.3       1 <0>        -0.0988
     31 C22       -16.5859   -1.2216   -7.2289 C.2       1 <0>        -0.0176
     32 C23       -17.6343   -1.0840   -8.0302 C.2       1 <0>        -0.2415
     33 C24       -18.3288    0.1948   -8.1572 C.2       1 <0>         0.3880
     34 O5        -19.3133    0.2801   -8.8635 O.2       1 <0>        -0.4662
     35 C25       -17.8274    1.4073   -7.4170 C.3       1 <0>        -0.1679
     36 C26       -16.3350    1.2516   -7.1182 C.3       1 <0>        -0.1055
     37 C27       -16.0670   -0.0664   -6.4037 C.3       1 <0>        -0.0255
     38 C28       -16.7492   -0.0869   -5.0347 C.3       1 <0>        -0.1402
     39 O6        -14.3642    1.6014   -4.7076 O.3       1 <0>        -0.5638
     40 C29       -12.0094   -1.4935   -5.2562 C.3       1 <0>        -0.1619
     41 O7         -9.9908    0.8379   -7.3082 O.3       1 <0>        -0.5354
     42 H5         -4.5997    3.7816    4.5829 H         1 <0>         0.0597
     43 H6         -5.6148    3.3093    3.1992 H         1 <0>         0.0542
     44 H7         -5.4228    2.2034    4.5806 H         1 <0>         0.0583
     45 H8         -3.2068    3.0580    2.6633 H         1 <0>         0.0771
     46 H9         -3.2351    1.0619    4.9723 H         1 <0>         0.0591
     47 H10        -1.8686    1.3546    3.8699 H         1 <0>         0.0587
     48 H11        -2.4120    2.6401    4.9746 H         1 <0>         0.0617
     49 H12        -3.2875    0.6366    1.9982 H         1 <0>         0.0692
     50 H13        -4.7369    0.4416    3.0128 H         1 <0>         0.0698
     51 H14        -5.1750    2.5959    1.2397 H         1 <0>         0.4023
     52 H15        -7.2416    1.8118   -0.3020 H         1 <0>         0.1052
     53 H16        -5.7922    2.0068   -1.3166 H         1 <0>         0.1051
     54 H17        -5.9498   -0.3719   -1.9989 H         1 <0>         0.1174
     55 H18        -7.3992   -0.5669   -0.9843 H         1 <0>         0.1175
     56 H19        -9.8541    0.8712   -4.2148 H         1 <0>         0.1044
     57 H20        -8.4047    1.0662   -5.2294 H         1 <0>         0.1048
     58 H21        -9.8120   -1.1548   -8.7172 H         1 <0>         0.0820
     59 H22        -9.6952   -2.3788   -7.4187 H         1 <0>         0.0881
     60 H23       -11.8700   -2.1554   -9.1615 H         1 <0>         0.0725
     61 H24       -11.9939   -2.8649   -7.5245 H         1 <0>         0.0806
     62 H25       -12.0492    1.0531   -4.7540 H         1 <0>         0.0706
     63 H26       -11.8709    1.7455   -6.3748 H         1 <0>         0.0862
     64 H27       -14.3769   -2.7031   -8.6410 H         1 <0>         0.0726
     65 H28       -13.7862   -3.0046   -6.9901 H         1 <0>         0.0744
     66 H29       -16.3859   -3.2886   -7.7334 H         1 <0>         0.0784
     67 H30       -15.8746   -2.8789   -6.0757 H         1 <0>         0.0844
     68 H31       -17.9825   -1.9346   -8.5991 H         1 <0>         0.1299
     69 H32       -17.9753    2.2927   -8.0451 H         1 <0>         0.0936
     70 H33       -18.3895    1.5401   -6.4948 H         1 <0>         0.1033
     71 H34       -15.7746    1.2821   -8.0567 H         1 <0>         0.0681
     72 H35       -16.0110    2.0862   -6.4899 H         1 <0>         0.0858
     73 H36       -16.3422    0.7114   -4.4140 H         1 <0>         0.0862
     74 H37       -17.8216    0.0619   -5.1609 H         1 <0>         0.0531
     75 H38       -16.5698   -1.0484   -4.5538 H         1 <0>         0.0552
     76 H39       -14.0152    2.4797   -4.5028 H         1 <0>         0.3780
     77 H40       -11.4583   -1.2190   -4.3568 H         1 <0>         0.0547
     78 H41       -13.0667   -1.6032   -5.0152 H         1 <0>         0.0796
     79 H42       -11.6253   -2.4370   -5.6439 H         1 <0>         0.0709
     80 H43        -9.0744    0.8792   -7.6143 H         1 <0>         0.3822
@<TRIPOS>BOND
     1    1    2 1
     2    1   42 1
     3    1   43 1
     4    1   44 1
     5    2    3 1
     6    2    4 1
     7    2   45 1
     8    3   46 1
     9    3   47 1
    10    3   48 1
    11    4    5 1
    12    4   49 1
    13    4   50 1
    14    5    6 am
    15    5   51 1
    16    6    7 2
    17    6    8 1
    18    8    9 1
    19    8   52 1
    20    8   53 1
    21    9   10 1
    22    9   54 1
    23    9   55 1
    24   10   11 2
    25   10   12 1
    26   12   13 1
    27   13   14 1
    28   13   56 1
    29   13   57 1
    30   14   15 2
    31   14   16 1
    32   16   21 1
    33   16   17 1
    34   16   41 1
    35   17   18 1
    36   17   58 1
    37   17   59 1
    38   18   19 1
    39   18   60 1
    40   18   61 1
    41   19   20 1
    42   19   27 1
    43   19   21 1
    44   21   22 1
    45   21   40 1
    46   22   23 1
    47   22   62 1
    48   22   63 1
    49   23   24 1
    50   23   25 1
    51   23   39 1
    52   25   26 1
    53   25   37 1
    54   25   27 1
    55   27   28 1
    56   27   29 1
    57   29   30 1
    58   29   64 1
    59   29   65 1
    60   30   31 1
    61   30   66 1
    62   30   67 1
    63   31   37 1
    64   31   32 2
    65   32   33 1
    66   32   68 1
    67   33   34 2
    68   33   35 1
    69   35   36 1
    70   35   69 1
    71   35   70 1
    72   36   37 1
    73   36   71 1
    74   36   72 1
    75   37   38 1
    76   38   73 1
    77   38   74 1
    78   38   75 1
    79   39   76 1
    80   40   77 1
    81   40   78 1
    82   40   79 1
    83   41   80 1
@<TRIPOS>MOLECULE
ZINC06547075
   64    66     0     0     0
SMALL
USER_CHARGES
ethyl 2-[2-[(4-amino-3-carbamoyl-isothiazol-5-yl)carbonyl-(2,4-dimethylphenyl)-amino]-2-(4-hydroxyphenyl)-acetyl]aminoacetate
@<TRIPOS>ATOM
      1 C1          2.6541    0.2820   -8.7978 C.3       1 <0>        -0.1548
      2 C2          1.5719    1.0645   -8.0513 C.3       1 <0>         0.0630
      3 O1          1.6200    0.7303   -6.6392 O.3       1 <0>        -0.3515
      4 C3          0.7289    1.3362   -5.8388 C.2       1 <0>         0.4604
      5 O2         -0.0650    2.1199   -6.3029 O.2       1 <0>        -0.5027
      6 C4          0.7186    1.0389   -4.3615 C.3       1 <0>         0.1303
      7 N1         -0.3381    1.8198   -3.7136 N.am      1 <0>        -0.7190
      8 C5         -0.5349    1.7149   -2.3844 C.2       1 <0>         0.5194
      9 O3          0.1627    0.9739   -1.7247 O.2       1 <0>        -0.4918
     10 C6         -1.6219    2.5181   -1.7179 C.3       1 <0>         0.1884
     11 H1         -2.4248    2.7051   -2.4311 H         1 <0>         0.1095
     12 C7         -1.0563    3.8316   -1.2425 C.ar      1 <0>        -0.1072
     13 C8         -0.2161    3.8643   -0.1450 C.ar      1 <0>        -0.0757
     14 C9          0.3083    5.0664    0.2893 C.ar      1 <0>        -0.1465
     15 C10        -0.0183    6.2427   -0.3697 C.ar      1 <0>         0.1172
     16 C11        -0.8661    6.2079   -1.4672 C.ar      1 <0>        -0.1443
     17 C12        -1.3829    5.0025   -1.9013 C.ar      1 <0>        -0.0705
     18 O4          0.4911    7.4273    0.0596 O.3       1 <0>        -0.4998
     19 N2         -2.1495    1.7709   -0.5736 N.am      1 <0>        -0.5535
     20 C13        -1.5781    0.5460   -0.2148 C.ar      1 <0>         0.1371
     21 C14        -0.7733    0.4574    0.9140 C.ar      1 <0>        -0.0973
     22 C15        -0.2056   -0.7523    1.2620 C.ar      1 <0>        -0.1056
     23 C16        -0.4378   -1.8750    0.4884 C.ar      1 <0>        -0.0700
     24 C17        -1.2387   -1.7903   -0.6354 C.ar      1 <0>        -0.1032
     25 C18        -1.8093   -0.5832   -0.9894 C.ar      1 <0>        -0.0663
     26 C19        -2.6821   -0.4918   -2.2145 C.3       1 <0>        -0.1203
     27 C20         0.1839   -3.1934    0.8710 C.3       1 <0>        -0.1175
     28 C21        -3.1856    2.2640    0.1334 C.2       1 <0>         0.6331
     29 O5         -3.6830    3.3302   -0.1788 O.2       1 <0>        -0.5198
     30 C22        -3.7128    1.5173    1.2770 C.2       1 <0>        -0.3972
     31 C23        -4.7619    1.8427    2.1389 C.2       1 <0>         0.2779
     32 C24        -4.9713    0.8700    3.1165 C.2       1 <0>        -0.0421
     33 N3         -4.2008   -0.1950    3.1397 N.2       1 <0>        -0.4574
     34 S1         -3.1827   -0.0456    1.9459 S.3       1 <0>         0.4825
     35 C25        -6.0417    1.0372    4.1166 C.2       1 <0>         0.6014
     36 O6         -6.7503    2.0250    4.0894 O.2       1 <0>        -0.5437
     37 N4         -6.2347    0.0951    5.0609 N.am      1 <0>        -0.8313
     38 N5         -5.5154    3.0042    2.0326 N.pl3     1 <0>        -0.8062
     39 H2          2.4821   -0.7869   -8.6714 H         1 <0>         0.0687
     40 H3          2.6180    0.5329   -9.8579 H         1 <0>         0.0833
     41 H4          3.6333    0.5424   -8.3959 H         1 <0>         0.0688
     42 H5          0.5927    0.8041   -8.4532 H         1 <0>         0.0736
     43 H6          1.7440    2.1334   -8.1778 H         1 <0>         0.0736
     44 H7          1.6836    1.3056   -3.9305 H         1 <0>         0.1160
     45 H8          0.5324   -0.0237   -4.2060 H         1 <0>         0.1162
     46 H9         -0.8961    2.4124   -4.2412 H         1 <0>         0.4136
     47 H10         0.0338    2.9489    0.3708 H         1 <0>         0.1282
     48 H11         0.9684    5.0909    1.1438 H         1 <0>         0.1301
     49 H12        -1.1220    7.1223   -1.9817 H         1 <0>         0.1323
     50 H13        -2.0429    4.9748   -2.7557 H         1 <0>         0.1297
     51 H14        -0.0572    7.8758    0.7178 H         1 <0>         0.3933
     52 H15        -0.5913    1.3338    1.5183 H         1 <0>         0.1243
     53 H16         0.4205   -0.8218    2.1393 H         1 <0>         0.1283
     54 H17        -1.4181   -2.6688   -1.2374 H         1 <0>         0.1255
     55 H18        -2.0795   -0.1795   -3.0675 H         1 <0>         0.0672
     56 H19        -3.1240   -1.4669   -2.4194 H         1 <0>         0.0733
     57 H20        -3.4740    0.2372   -2.0429 H         1 <0>         0.0658
     58 H21         1.1585   -3.2880    0.3923 H         1 <0>         0.0729
     59 H22         0.3048   -3.2375    1.9534 H         1 <0>         0.0679
     60 H23        -0.4622   -4.0082    0.5441 H         1 <0>         0.0671
     61 H24        -5.6695   -0.6929    5.0825 H         1 <0>         0.4115
     62 H25        -6.9389    0.2050    5.7188 H         1 <0>         0.4091
     63 H26        -5.3240    3.6438    1.3289 H         1 <0>         0.4158
     64 H27        -6.2331    3.1760    2.6621 H         1 <0>         0.4189
@<TRIPOS>BOND
     1    1    2 1
     2    1   39 1
     3    1   40 1
     4    1   41 1
     5    2    3 1
     6    2   42 1
     7    2   43 1
     8    3    4 1
     9    4    5 2
    10    4    6 1
    11    6    7 1
    12    6   44 1
    13    6   45 1
    14    7    8 am
    15    7   46 1
    16    8    9 2
    17    8   10 1
    18   10   11 1
    19   10   12 1
    20   10   19 1
    21   12   17 ar
    22   12   13 ar
    23   13   14 ar
    24   13   47 1
    25   14   15 ar
    26   14   48 1
    27   15   16 ar
    28   15   18 1
    29   16   17 ar
    30   16   49 1
    31   17   50 1
    32   18   51 1
    33   19   20 1
    34   19   28 am
    35   20   25 ar
    36   20   21 ar
    37   21   22 ar
    38   21   52 1
    39   22   23 ar
    40   22   53 1
    41   23   24 ar
    42   23   27 1
    43   24   25 ar
    44   24   54 1
    45   25   26 1
    46   26   55 1
    47   26   56 1
    48   26   57 1
    49   27   58 1
    50   27   59 1
    51   27   60 1
    52   28   29 2
    53   28   30 1
    54   30   34 1
    55   30   31 2
    56   31   32 1
    57   31   38 1
    58   32   33 2
    59   32   35 1
    60   33   34 1
    61   35   36 2
    62   35   37 am
    63   37   61 1
    64   37   62 1
    65   38   63 1
    66   38   64 1
@<TRIPOS>MOLECULE
ZINC22075596
   45    45     0     0     0
SMALL
USER_CHARGES
2-[2-bromo-4-[[2-(2-hydroxyethylamino)ethylamino]methyl]-6-methoxy-phenoxy]acetamide
@<TRIPOS>ATOM
      1 C1          2.1934    3.9171    3.0819 C.3       1 <0>         0.0157
      2 O1          1.2097    3.1404    2.3956 O.3       1 <0>        -0.2914
      3 C2          0.8066    1.9871    2.9929 C.ar      1 <0>         0.1306
      4 C3          1.3467    1.6114    4.2127 C.ar      1 <0>        -0.1665
      5 C4          0.9362    0.4388    4.8189 C.ar      1 <0>        -0.1205
      6 C5         -0.0128   -0.3620    4.2110 C.ar      1 <0>        -0.0927
      7 C6         -0.5595    0.0094    2.9959 C.ar      1 <0>        -0.0793
      8 C7         -0.1484    1.1818    2.3806 C.ar      1 <0>         0.1228
      9 O2         -0.6816    1.5467    1.1837 O.3       1 <0>        -0.2873
     10 C8         -0.0127    1.0858    0.0080 C.3       1 <0>         0.0442
     11 C9         -0.7416    1.5850   -1.2129 C.2       1 <0>         0.5218
     12 O3         -1.7359    2.2682   -1.0884 O.2       1 <0>        -0.5216
     13 N1         -0.2884    1.2723   -2.4431 N.am      1 <0>        -0.8733
     14 Br1        -1.8624   -1.0850    2.1710 Br        1 <0>         0.0054
     15 C10         1.5248    0.0322    6.1453 C.3       1 <0>         0.0548
     16 N2          0.7121    0.5915    7.2337 N.4       1 <0>        -0.5380
     17 C11         1.2573    0.2149    8.5448 C.3       1 <0>        -0.0035
     18 C12         0.3863    0.8143    9.6506 C.3       1 <0>         0.0205
     19 N3          0.9314    0.4377   10.9617 N.3       1 <0>        -0.6556
     20 C13         0.1187    0.9970   12.0501 C.3       1 <0>         0.0482
     21 C14         0.7164    0.5842   13.3968 C.3       1 <0>         0.0868
     22 O4          2.0080    1.1769   13.5464 O.3       1 <0>        -0.5948
     23 H1          2.4270    4.8163    2.4929 H         1 <0>         0.1162
     24 H2          3.1065    3.3181    3.2144 H         1 <0>         0.0632
     25 H3          1.8040    4.2148    4.0667 H         1 <0>         0.0616
     26 H4          2.0881    2.2350    4.6899 H         1 <0>         0.1492
     27 H5         -0.3309   -1.2773    4.6878 H         1 <0>         0.1488
     28 H6          1.0193    1.4666    0.0002 H         1 <0>         0.0904
     29 H7          0.0023   -0.0141    0.0020 H         1 <0>         0.0886
     30 H8         -0.8204    1.6367   -3.3343 H         1 <0>         0.4355
     31 H9          0.6135    0.6527   -2.5559 H         1 <0>         0.4221
     32 H10         1.5342   -1.0651    6.2213 H         1 <0>         0.1414
     33 H11         2.5536    0.4139    6.2224 H         1 <0>         0.1404
     34 H12         0.7026    1.6888    7.1576 H         1 <0>         0.4507
     35 H13         1.2649   -0.8812    8.6376 H         1 <0>         0.1294
     36 H14         2.2842    0.5980    8.6387 H         1 <0>         0.1391
     37 H15         0.3787    1.9104    9.5578 H         1 <0>         0.0936
     38 H16        -0.6406    0.4313    9.5567 H         1 <0>         0.0528
     39 H17         0.9389   -0.6583   11.0545 H         1 <0>         0.3477
     40 H18         0.1092    2.0943   11.9740 H         1 <0>         0.0861
     41 H19        -0.9101    0.6153   11.9730 H         1 <0>         0.0545
     42 H20         0.0594    0.9266   14.2099 H         1 <0>         0.0534
     43 H21         0.8088   -0.5112   13.4367 H         1 <0>         0.0440
     44 H22         2.5954    0.9927   14.4580 H         1 <0>         0.4149
     45 H23        -0.3167    0.2098    7.1566 H         1 <0>         0.4500
@<TRIPOS>BOND
     1    1    2 1
     2    1   23 1
     3    1   24 1
     4    1   25 1
     5    2    3 1
     6    3    8 ar
     7    3    4 ar
     8    4    5 ar
     9    4   26 1
    10    5    6 ar
    11    5   15 1
    12    6    7 ar
    13    6   27 1
    14    7    8 ar
    15    7   14 1
    16    8    9 1
    17    9   10 1
    18   10   11 1
    19   10   28 1
    20   10   29 1
    21   11   12 2
    22   11   13 am
    23   13   30 1
    24   13   31 1
    25   15   16 1
    26   15   32 1
    27   15   33 1
    28   16   17 1
    29   16   34 1
    30   16   45 1
    31   17   18 1
    32   17   35 1
    33   17   36 1
    34   18   19 1
    35   18   37 1
    36   18   38 1
    37   19   20 1
    38   19   39 1
    39   20   21 1
    40   20   40 1
    41   20   41 1
    42   21   22 1
    43   21   42 1
    44   21   43 1
    45   22   44 1
@<TRIPOS>MOLECULE
ZINC35050063
   67    67     0     0     0
SMALL
USER_CHARGES

@<TRIPOS>ATOM
      1 C1          0.1287    2.0202   -0.7575 C.3       1 <0>        -0.1182
      2 C2          0.2038    0.5645   -0.3751 C.2       1 <0>        -0.1269
      3 C3          0.4113    0.2250    0.8730 C.2       1 <0>        -0.1633
      4 C4          0.4508    1.2833    1.9452 C.3       1 <0>        -0.0919
      5 C5         -0.5642    0.9407    3.0375 C.3       1 <0>        -0.1315
      6 C6         -0.5241    2.0152    4.1261 C.3       1 <0>         0.1571
      7 C7         -0.8719    3.3739    3.5146 C.3       1 <0>        -0.1374
      8 C8         -1.5239    1.6778    5.2020 C.2       1 <0>        -0.1885
      9 C9         -1.1211    1.4872    6.4339 C.2       1 <0>        -0.1817
     10 O1          0.7863    2.0696    4.6936 O.3       1 <0>        -0.5543
     11 C10         0.0402   -0.5007   -1.4285 C.3       1 <0>        -0.0797
     12 C11        -1.4483   -0.7844   -1.6401 C.3       1 <0>        -0.1403
     13 C12        -1.6144   -1.8658   -2.7096 C.3       1 <0>         0.1237
     14 H1         -1.0967   -1.5602   -3.6188 H         1 <0>         0.1075
     15 C13        -3.1017   -2.0611   -3.0107 C.3       1 <0>         0.0840
     16 C14        -3.2757   -3.2264   -3.9867 C.3       1 <0>        -0.1652
     17 C15        -3.8491   -2.3680   -1.7115 C.3       1 <0>        -0.1892
     18 O2         -3.6302   -0.8683   -3.5939 O.3       1 <0>        -0.3497
     19 C16        -5.0240   -0.9397   -3.9010 C.3       1 <0>         0.2231
     20 H2         -5.5606   -1.3721   -3.0565 H         1 <0>         0.0699
     21 C17        -5.5583    0.4678   -4.1788 C.3       1 <0>         0.0591
     22 H3         -4.9948    0.9164   -4.9969 H         1 <0>         0.0829
     23 C18        -7.0376    0.3767   -4.5658 C.3       1 <0>         0.0852
     24 H4         -7.6091   -0.0259   -3.7295 H         1 <0>         0.0754
     25 C19        -7.1810   -0.5492   -5.7775 C.3       1 <0>         0.0903
     26 H5         -6.6502   -0.1211   -6.6279 H         1 <0>         0.0793
     27 C20        -6.5840   -1.9174   -5.4380 C.3       1 <0>         0.1075
     28 H6         -7.1412   -2.3627   -4.6137 H         1 <0>         0.0788
     29 O3         -5.2160   -1.7577   -5.0569 O.3       1 <0>        -0.3692
     30 C21        -6.6695   -2.8297   -6.6632 C.3       1 <0>         0.0907
     31 O4         -6.2200   -4.1404   -6.3135 O.3       1 <0>        -0.5663
     32 O5         -8.5643   -0.6981   -6.1038 O.3       1 <0>        -0.5509
     33 O6         -7.5263    1.6783   -4.8961 O.3       1 <0>        -0.5559
     34 O7         -5.4189    1.2717   -3.0057 O.3       1 <0>        -0.5554
     35 O8         -1.0592   -3.0941   -2.2352 O.3       1 <0>        -0.5460
     36 H7          1.0317    2.5308   -0.4229 H         1 <0>         0.0652
     37 H8          0.0422    2.1074   -1.8405 H         1 <0>         0.0597
     38 H9         -0.7421    2.4754   -0.2856 H         1 <0>         0.0647
     39 H10         0.5541   -0.8133    1.1336 H         1 <0>         0.1056
     40 H11         1.4503    1.3248    2.3781 H         1 <0>         0.0747
     41 H12         0.2031    2.2512    1.5096 H         1 <0>         0.0746
     42 H13        -1.5637    0.8992    2.6047 H         1 <0>         0.0717
     43 H14        -0.3164   -0.0272    3.4732 H         1 <0>         0.0647
     44 H15        -1.8714    3.3323    3.0817 H         1 <0>         0.0702
     45 H16        -0.8433    4.1393    4.2901 H         1 <0>         0.0626
     46 H17        -0.1488    3.6179    2.7364 H         1 <0>         0.0683
     47 H18        -2.5724    1.5931    4.9575 H         1 <0>         0.1144
     48 H19        -1.8376    1.2454    7.2050 H         1 <0>         0.0997
     49 H20        -0.0726    1.5718    6.6784 H         1 <0>         0.1043
     50 H21         1.0735    1.2406    5.1002 H         1 <0>         0.3752
     51 H22         0.4812   -0.1571   -2.3642 H         1 <0>         0.0673
     52 H23         0.5413   -1.4127   -1.1039 H         1 <0>         0.0727
     53 H24        -1.8893   -1.1280   -0.7044 H         1 <0>         0.0680
     54 H25        -1.9494    0.1276   -1.9646 H         1 <0>         0.0783
     55 H26        -2.7654   -4.1068   -3.5961 H         1 <0>         0.0671
     56 H27        -4.3369   -3.4448   -4.1064 H         1 <0>         0.0752
     57 H28        -2.8488   -2.9579   -4.9531 H         1 <0>         0.0646
     58 H29        -3.7252   -1.5378   -1.0162 H         1 <0>         0.0713
     59 H30        -4.9087   -2.5071   -1.9260 H         1 <0>         0.0632
     60 H31        -3.4460   -3.2778   -1.2667 H         1 <0>         0.0724
     61 H32        -7.7024   -2.8797   -7.0077 H         1 <0>         0.0760
     62 H33        -6.0402   -2.4300   -7.4584 H         1 <0>         0.0565
     63 H34        -6.2469   -4.7733   -7.0440 H         1 <0>         0.3845
     64 H35        -9.0076    0.1322   -6.3256 H         1 <0>         0.3945
     65 H36        -7.4597    2.3183   -4.1743 H         1 <0>         0.3948
     66 H37        -4.5062    1.3684   -2.7013 H         1 <0>         0.3929
     67 H38        -1.4728   -3.4264   -1.4267 H         1 <0>         0.3727
@<TRIPOS>BOND
     1    1    2 1
     2    1   36 1
     3    1   37 1
     4    1   38 1
     5    2    3 2
     6    2   11 1
     7    3    4 1
     8    3   39 1
     9    4    5 1
    10    4   40 1
    11    4   41 1
    12    5    6 1
    13    5   42 1
    14    5   43 1
    15    6    7 1
    16    6    8 1
    17    6   10 1
    18    7   44 1
    19    7   45 1
    20    7   46 1
    21    8    9 2
    22    8   47 1
    23    9   48 1
    24    9   49 1
    25   10   50 1
    26   11   12 1
    27   11   51 1
    28   11   52 1
    29   12   13 1
    30   12   53 1
    31   12   54 1
    32   13   14 1
    33   13   15 1
    34   13   35 1
    35   15   16 1
    36   15   17 1
    37   15   18 1
    38   16   55 1
    39   16   56 1
    40   16   57 1
    41   17   58 1
    42   17   59 1
    43   17   60 1
    44   18   19 1
    45   19   20 1
    46   19   29 1
    47   19   21 1
    48   21   22 1
    49   21   23 1
    50   21   34 1
    51   23   24 1
    52   23   25 1
    53   23   33 1
    54   25   26 1
    55   25   27 1
    56   25   32 1
    57   27   28 1
    58   27   29 1
    59   27   30 1
    60   30   31 1
    61   30   61 1
    62   30   62 1
    63   31   63 1
    64   32   64 1
    65   33   65 1
    66   34   66 1
    67   35   67 1
@<TRIPOS>MOLECULE
ZINC43077731
   49    50     0     0     0
SMALL
USER_CHARGES

@<TRIPOS>ATOM
      1 C1          0.1460    2.9615   -4.0086 C.ar      1 <0>        -0.1167
      2 C2          1.3291    3.5341   -3.5493 C.ar      1 <0>         0.0999
      3 C3          2.5096    2.8043   -3.6215 C.ar      1 <0>         0.0158
      4 N1          2.5192    1.5854   -4.1167 N.ar      1 <0>        -0.4295
      5 C4          1.4118    1.0061   -4.5643 C.ar      1 <0>         0.0673
      6 C5          0.1910    1.6784   -4.5232 C.ar      1 <0>        -0.0831
      7 C6          1.4736   -0.3677   -5.1127 C.2       1 <0>         0.4395
      8 N2          0.4934   -0.8241   -5.8353 N.2       1 <0>        -0.4190
      9 O1         -0.5447    0.0449   -6.2503 O.3       1 <0>        -0.4046
     10 N3          2.5754   -1.1668   -4.8560 N.pl3     1 <0>        -0.8199
     11 O2          1.3295    4.7920   -3.0368 O.3       1 <0>        -0.3049
     12 C7          2.5835    5.3087   -2.5867 C.3       1 <0>         0.0530
     13 C8          2.3866    6.7266   -2.0467 C.3       1 <0>        -0.1180
     14 C9          3.7292    7.2798   -1.5648 C.3       1 <0>        -0.1142
     15 C10         3.5323    8.6978   -1.0248 C.3       1 <0>        -0.1180
     16 C11         4.8749    9.2510   -0.5429 C.3       1 <0>         0.0530
     17 O3          4.6910   10.5753   -0.0386 O.3       1 <0>        -0.3049
     18 C12         5.7931   11.2144    0.4323 C.ar      1 <0>         0.0999
     19 C13         7.0333   10.5875    0.4075 C.ar      1 <0>         0.0158
     20 N4          8.1065   11.1985    0.8614 N.ar      1 <0>        -0.4294
     21 C14         8.0510   12.4286    1.3574 C.ar      1 <0>         0.0674
     22 C15         6.8408   13.1187    1.4139 C.ar      1 <0>        -0.0826
     23 C16         5.6942   12.5071    0.9400 C.ar      1 <0>        -0.1167
     24 C17         9.2865   13.0740    1.8561 C.2       1 <0>         0.4392
     25 N5          9.2087   14.1107    2.6376 N.2       1 <0>        -0.4186
     26 O4          7.9519   14.5243    3.1421 O.3       1 <0>        -0.4048
     27 N6         10.5252   12.5739    1.4903 N.pl3     1 <0>        -0.8199
     28 H1         -0.7861    3.5049   -3.9601 H         1 <0>         0.1495
     29 H2          3.4306    3.2432   -3.2672 H         1 <0>         0.1633
     30 H3         -0.7077    1.2034   -4.8880 H         1 <0>         0.1742
     31 H4         -1.2279   -0.3847   -6.7829 H         1 <0>         0.3968
     32 H5          3.3065   -0.8264   -4.3170 H         1 <0>         0.4192
     33 H6          2.6159   -2.0669   -5.2153 H         1 <0>         0.4081
     34 H7          2.9768    4.6700   -1.7958 H         1 <0>         0.0681
     35 H8          3.2870    5.3313   -3.4190 H         1 <0>         0.0680
     36 H9          1.9933    7.3652   -2.8377 H         1 <0>         0.0789
     37 H10         1.6831    6.7040   -1.2144 H         1 <0>         0.0789
     38 H11         4.1225    6.6412   -0.7739 H         1 <0>         0.0720
     39 H12         4.4327    7.3024   -2.3971 H         1 <0>         0.0720
     40 H13         3.1390    9.3364   -1.8158 H         1 <0>         0.0789
     41 H14         2.8288    8.6752   -0.1925 H         1 <0>         0.0789
     42 H15         5.2682    8.6124    0.2480 H         1 <0>         0.0680
     43 H16         5.5784    9.2736   -1.3752 H         1 <0>         0.0681
     44 H17         7.1170    9.5864    0.0111 H         1 <0>         0.1633
     45 H18         6.7999   14.1192    1.8185 H         1 <0>         0.1737
     46 H19         4.7436   13.0189    0.9669 H         1 <0>         0.1495
     47 H20         7.9945   15.3032    3.7135 H         1 <0>         0.3969
     48 H21        10.5832   11.8008    0.9074 H         1 <0>         0.4191
     49 H22        11.3347   12.9968    1.8170 H         1 <0>         0.4081
@<TRIPOS>BOND
     1    1    6 ar
     2    1    2 ar
     3    1   28 1
     4    2    3 ar
     5    2   11 1
     6    3    4 ar
     7    3   29 1
     8    4    5 ar
     9    5    6 ar
    10    5    7 1
    11    6   30 1
    12    7    8 2
    13    7   10 1
    14    8    9 1
    15    9   31 1
    16   10   32 1
    17   10   33 1
    18   11   12 1
    19   12   13 1
    20   12   34 1
    21   12   35 1
    22   13   14 1
    23   13   36 1
    24   13   37 1
    25   14   15 1
    26   14   38 1
    27   14   39 1
    28   15   16 1
    29   15   40 1
    30   15   41 1
    31   16   17 1
    32   16   42 1
    33   16   43 1
    34   17   18 1
    35   18   23 ar
    36   18   19 ar
    37   19   20 ar
    38   19   44 1
    39   20   21 ar
    40   21   22 ar
    41   21   24 1
    42   22   23 ar
    43   22   45 1
    44   23   46 1
    45   24   25 2
    46   24   27 1
    47   25   26 1
    48   26   47 1
    49   27   48 1
    50   27   49 1
@<TRIPOS>MOLECULE
ZINC44075481
   63    64     0     0     0
SMALL
USER_CHARGES

@<TRIPOS>ATOM
      1 C1         -0.0231    1.8519    0.0122 C.3       1 <0>        -0.0636
      2 C2          1.4826    2.1033   -0.0008 C.3       1 <0>         0.0999
      3 H1          1.8892    1.8547   -0.9811 H         1 <0>         0.0941
      4 C3          2.0740    1.1371    1.0718 C.3       1 <0>         0.0989
      5 H2          1.5519    1.3683    2.0002 H         1 <0>         0.0761
      6 C4          1.7093   -0.2768    0.6958 C.3       1 <0>        -0.0199
      7 H3          1.6708   -0.9206    1.5745 H         1 <0>         0.1219
      8 S1          0.0021   -0.0041    0.0020 S.3       1 <0>        -0.2629
      9 C5          2.6726   -0.8360   -0.3531 C.3       1 <0>        -0.1051
     10 C6          2.3447   -2.3076   -0.6137 C.3       1 <0>        -0.1199
     11 C7          3.3081   -2.8668   -1.6625 C.3       1 <0>        -0.1033
     12 C8          2.9801   -4.3383   -1.9232 C.3       1 <0>        -0.1400
     13 C9          3.9290   -4.8891   -2.9562 C.2       1 <0>         0.5115
     14 O1          4.7835   -4.1750   -3.4367 O.2       1 <0>        -0.5388
     15 N1          3.8282   -6.1753   -3.3462 N.am      1 <0>        -0.7300
     16 C10         4.7506   -6.7107   -4.3505 C.3       1 <0>         0.1226
     17 C11         4.4227   -8.1823   -4.6111 C.3       1 <0>         0.0492
     18 O2          3.1239   -8.2841   -5.1983 O.3       1 <0>        -0.3790
     19 C12         2.7183   -9.6243   -5.4833 C.3       1 <0>         0.0637
     20 C13         1.3207   -9.6128   -6.1058 C.3       1 <0>         0.0642
     21 O3          1.3693   -8.9549   -7.3734 O.3       1 <0>        -0.3751
     22 C14         0.1085   -8.8893   -8.0429 C.3       1 <0>         0.0599
     23 C15         0.2788   -8.1684   -9.3816 C.3       1 <0>         0.0687
     24 O4          1.1210   -8.9441  -10.2366 O.3       1 <0>        -0.3945
     25 C16         1.3457   -8.3565  -11.5197 C.3       1 <0>         0.0238
     26 C17         2.2555   -9.2680  -12.3457 C.3       1 <0>         0.0012
     27 N2          1.5644  -10.5362  -12.6146 N.4       1 <0>        -0.6366
     28 N3          3.4031    1.6588    1.1977 N.am      1 <0>        -0.7270
     29 C18         3.2771    3.0050    0.9867 C.2       1 <0>         0.7104
     30 O5          4.1501    3.8117    1.2427 O.2       1 <0>        -0.5529
     31 N4          2.0648    3.3394    0.4698 N.am      1 <0>        -0.7317
     32 H4         -0.4860    2.2410    0.9191 H         1 <0>         0.1067
     33 H5         -0.5032    2.2507   -0.8814 H         1 <0>         0.1200
     34 H6          2.5690   -0.2711   -1.2795 H         1 <0>         0.0770
     35 H7          3.6962   -0.7510    0.0118 H         1 <0>         0.0776
     36 H8          2.4483   -2.8725    0.3127 H         1 <0>         0.0654
     37 H9          1.3211   -2.3926   -0.9785 H         1 <0>         0.0711
     38 H10         3.2045   -2.3018   -2.5889 H         1 <0>         0.0710
     39 H11         4.3317   -2.7817   -1.2977 H         1 <0>         0.0706
     40 H12         3.0838   -4.9032   -0.9968 H         1 <0>         0.0939
     41 H13         1.9565   -4.4233   -2.2880 H         1 <0>         0.0941
     42 H14         3.1448   -6.7464   -2.9619 H         1 <0>         0.4031
     43 H15         4.6470   -6.1458   -5.2769 H         1 <0>         0.0755
     44 H16         5.7742   -6.6257   -3.9856 H         1 <0>         0.0842
     45 H17         5.1628   -8.6046   -5.2907 H         1 <0>         0.0675
     46 H18         4.4396   -8.7306   -3.6692 H         1 <0>         0.0592
     47 H19         3.4231  -10.0766   -6.1811 H         1 <0>         0.0580
     48 H20         2.6999  -10.2026   -4.5595 H         1 <0>         0.0689
     49 H21         0.9749  -10.6376   -6.2414 H         1 <0>         0.0665
     50 H22         0.6339   -9.0817   -5.4468 H         1 <0>         0.0622
     51 H23        -0.2625   -9.8991   -8.2186 H         1 <0>         0.0579
     52 H24        -0.6035   -8.3432   -7.4241 H         1 <0>         0.0743
     53 H25        -0.6962   -8.0396   -9.8515 H         1 <0>         0.0745
     54 H26         0.7328   -7.1918   -9.2132 H         1 <0>         0.0723
     55 H27         0.3928   -8.2317  -12.0340 H         1 <0>         0.0751
     56 H28         1.8218   -7.3839  -11.3956 H         1 <0>         0.0991
     57 H29         2.4989   -8.7798  -13.2894 H         1 <0>         0.1473
     58 H30         3.1730   -9.4647  -11.7911 H         1 <0>         0.1423
     59 H31         1.3391  -10.9881  -11.7411 H         1 <0>         0.4413
     60 H32         0.7151  -10.3541  -13.1280 H         1 <0>         0.4336
     61 H33         4.2154    1.1649    1.3905 H         1 <0>         0.4326
     62 H34         1.6760    4.2269    0.4239 H         1 <0>         0.4331
     63 H35         2.1645  -11.1373  -13.1593 H         1 <0>         0.4384
@<TRIPOS>BOND
     1    1    8 1
     2    1    2 1
     3    1   32 1
     4    1   33 1
     5    2    3 1
     6    2   31 1
     7    2    4 1
     8    4    5 1
     9    4    6 1
    10    4   28 1
    11    6    7 1
    12    6    8 1
    13    6    9 1
    14    9   10 1
    15    9   34 1
    16    9   35 1
    17   10   11 1
    18   10   36 1
    19   10   37 1
    20   11   12 1
    21   11   38 1
    22   11   39 1
    23   12   13 1
    24   12   40 1
    25   12   41 1
    26   13   14 2
    27   13   15 am
    28   15   16 1
    29   15   42 1
    30   16   17 1
    31   16   43 1
    32   16   44 1
    33   17   18 1
    34   17   45 1
    35   17   46 1
    36   18   19 1
    37   19   20 1
    38   19   47 1
    39   19   48 1
    40   20   21 1
    41   20   49 1
    42   20   50 1
    43   21   22 1
    44   22   23 1
    45   22   51 1
    46   22   52 1
    47   23   24 1
    48   23   53 1
    49   23   54 1
    50   24   25 1
    51   25   26 1
    52   25   55 1
    53   25   56 1
    54   26   27 1
    55   26   57 1
    56   26   58 1
    57   27   59 1
    58   27   60 1
    59   27   63 1
    60   28   29 am
    61   28   61 1
    62   29   30 2
    63   29   31 am
    64   31   62 1
@<TRIPOS>MOLECULE
ZINC06481059
   66    67     0     0     0
SMALL
USER_CHARGES
4-amino-N'-(4-butoxyphenyl)-N'-[1-(tert-butylcarbamoyl)propyl]isothiazole-3,5-dicarboxamide
@<TRIPOS>ATOM
      1 C1        -10.0073   -0.6582    4.2129 C.3       1 <0>        -0.1529
      2 C2         -8.6351   -0.0409    3.9358 C.3       1 <0>        -0.1218
      3 C3         -7.5859   -1.1507    3.8434 C.3       1 <0>        -0.1202
      4 C4         -6.2136   -0.5334    3.5664 C.3       1 <0>         0.0577
      5 O1         -5.2337   -1.5699    3.4801 O.3       1 <0>        -0.3136
      6 C5         -3.9516   -1.1885    3.2359 C.ar      1 <0>         0.1368
      7 C6         -2.9504   -2.1439    3.1400 C.ar      1 <0>        -0.1429
      8 C7         -1.6482   -1.7574    2.8916 C.ar      1 <0>        -0.0720
      9 C8         -1.3409   -0.4119    2.7384 C.ar      1 <0>         0.1130
     10 C9         -2.3427    0.5443    2.8403 C.ar      1 <0>        -0.0637
     11 C10        -3.6453    0.1559    3.0834 C.ar      1 <0>        -0.1993
     12 N1         -0.0205   -0.0192    2.4870 N.am      1 <0>        -0.5421
     13 C11         0.6251   -0.3862    1.2242 C.3       1 <0>         0.1190
     14 H1          1.0488    0.5046    0.7604 H         1 <0>         0.0987
     15 C12        -0.4098   -1.0075    0.2841 C.3       1 <0>        -0.1256
     16 C13        -1.4150    0.0625   -0.1466 C.3       1 <0>        -0.1649
     17 C14         1.7228   -1.3833    1.4924 C.2       1 <0>         0.4969
     18 O2          1.7231   -2.0222    2.5232 O.2       1 <0>        -0.5040
     19 N2          2.7042   -1.5649    0.5867 N.am      1 <0>        -0.7177
     20 C15         3.7713   -2.5342    0.8474 C.3       1 <0>         0.1717
     21 C16         3.1637   -3.9279    1.0186 C.3       1 <0>        -0.1640
     22 C17         4.7491   -2.5451   -0.3294 C.3       1 <0>        -0.1569
     23 C18         4.5157   -2.1419    2.1253 C.3       1 <0>        -0.1649
     24 C19         0.6564    0.6965    3.4068 C.2       1 <0>         0.6309
     25 O3          0.1609    0.9086    4.4983 O.2       1 <0>        -0.5170
     26 C20         1.9877    1.2189    3.0933 C.2       1 <0>        -0.3837
     27 C21         2.9029    1.8662    3.9255 C.2       1 <0>         0.2782
     28 C22         4.0767    2.2164    3.2582 C.2       1 <0>        -0.0292
     29 N3          4.2007    1.9297    1.9811 N.2       1 <0>        -0.4396
     30 S1          2.8699    1.2057    1.5465 S.3       1 <0>         0.4287
     31 C23         5.1646    2.9056    3.9760 C.2       1 <0>         0.6017
     32 O4          5.0429    3.1681    5.1571 O.2       1 <0>        -0.5389
     33 N4          6.2938    3.2448    3.3231 N.am      1 <0>        -0.8298
     34 N5          2.6718    2.1293    5.2692 N.pl3     1 <0>        -0.8027
     35 H2        -10.7548    0.1324    4.2787 H         1 <0>         0.0575
     36 H3        -10.2694   -1.3395    3.4034 H         1 <0>         0.0561
     37 H4         -9.9754   -1.2073    5.1539 H         1 <0>         0.0563
     38 H5         -8.3730    0.6404    4.7453 H         1 <0>         0.0651
     39 H6         -8.6670    0.5082    2.9948 H         1 <0>         0.0648
     40 H7         -7.8480   -1.8320    3.0339 H         1 <0>         0.0743
     41 H8         -7.5540   -1.6998    4.7845 H         1 <0>         0.0745
     42 H9         -5.9516    0.1479    4.3758 H         1 <0>         0.0633
     43 H10        -6.2455    0.0157    2.6253 H         1 <0>         0.0631
     44 H11        -3.1896   -3.1904    3.2592 H         1 <0>         0.1356
     45 H12        -0.8690   -2.5015    2.8162 H         1 <0>         0.1376
     46 H13        -2.1037    1.5912    2.7253 H         1 <0>         0.1265
     47 H14        -4.4253    0.8991    3.1583 H         1 <0>         0.1323
     48 H15        -0.9339   -1.8114    0.8010 H         1 <0>         0.0902
     49 H16         0.0932   -1.4087   -0.5958 H         1 <0>         0.0880
     50 H17        -0.8909    0.8663   -0.6636 H         1 <0>         0.0591
     51 H18        -2.1523   -0.3802   -0.8164 H         1 <0>         0.0659
     52 H19        -1.9180    0.4636    0.7333 H         1 <0>         0.0712
     53 H20         2.7040   -1.0539   -0.2378 H         1 <0>         0.3996
     54 H21         2.6335   -4.2074    0.1082 H         1 <0>         0.0562
     55 H22         3.9577   -4.6491    1.2125 H         1 <0>         0.0640
     56 H23         2.4672   -3.9201    1.8569 H         1 <0>         0.0780
     57 H24         5.1820   -1.5522   -0.4513 H         1 <0>         0.0628
     58 H25         5.5431   -3.2663   -0.1354 H         1 <0>         0.0753
     59 H26         4.2188   -2.8246   -1.2398 H         1 <0>         0.0648
     60 H27         3.8191   -2.1341    2.9636 H         1 <0>         0.0773
     61 H28         5.3096   -2.8631    2.3192 H         1 <0>         0.0649
     62 H29         4.9485   -1.1490    2.0033 H         1 <0>         0.0507
     63 H30         6.3908    3.0355    2.3810 H         1 <0>         0.4113
     64 H31         7.0095    3.6983    3.7954 H         1 <0>         0.4104
     65 H32         1.8353    1.8591    5.6794 H         1 <0>         0.4176
     66 H33         3.3467    2.5832    5.7976 H         1 <0>         0.4198
@<TRIPOS>BOND
     1    1    2 1
     2    1   35 1
     3    1   36 1
     4    1   37 1
     5    2    3 1
     6    2   38 1
     7    2   39 1
     8    3    4 1
     9    3   40 1
    10    3   41 1
    11    4    5 1
    12    4   42 1
    13    4   43 1
    14    5    6 1
    15    6   11 ar
    16    6    7 ar
    17    7    8 ar
    18    7   44 1
    19    8    9 ar
    20    8   45 1
    21    9   10 ar
    22    9   12 1
    23   10   11 ar
    24   10   46 1
    25   11   47 1
    26   12   13 1
    27   12   24 am
    28   13   14 1
    29   13   15 1
    30   13   17 1
    31   15   16 1
    32   15   48 1
    33   15   49 1
    34   16   50 1
    35   16   51 1
    36   16   52 1
    37   17   18 2
    38   17   19 am
    39   19   20 1
    40   19   53 1
    41   20   21 1
    42   20   22 1
    43   20   23 1
    44   21   54 1
    45   21   55 1
    46   21   56 1
    47   22   57 1
    48   22   58 1
    49   22   59 1
    50   23   60 1
    51   23   61 1
    52   23   62 1
    53   24   25 2
    54   24   26 1
    55   26   30 1
    56   26   27 2
    57   27   28 1
    58   27   34 1
    59   28   29 2
    60   28   31 1
    61   29   30 1
    62   31   32 2
    63   31   33 am
    64   33   63 1
    65   33   64 1
    66   34   65 1
    67   34   66 1
@<TRIPOS>MOLECULE
ZINC12299657
   68    71     0     0     0
SMALL
USER_CHARGES
methyl 1-[(2S)-2-hydroxy-3-[4-[(1,4,5,6-tetrahydrocyclopenta[d]pyrazol-3-ylmethylamino)methyl]phenoxy]propyl]piperidine-4-carboxylate
@<TRIPOS>ATOM
      1 C1         -3.3963    5.9907    5.6381 C.3       1 <0>         0.0337
      2 O1         -2.9779    5.5417    4.3222 O.3       1 <0>        -0.3553
      3 C2         -2.8788    4.2165    4.1334 C.2       1 <0>         0.4604
      4 O2         -3.1332    3.4567    5.0378 O.2       1 <0>        -0.4901
      5 C3         -2.4501    3.6762    2.7935 C.3       1 <0>        -0.0932
      6 C4         -2.4185    2.1462    2.8450 C.3       1 <0>        -0.1349
      7 C5         -1.9243    1.6056    1.5013 C.3       1 <0>        -0.0036
      8 C6         -0.5957    3.5967    1.1235 C.3       1 <0>         0.0022
      9 C7         -1.0502    4.1968    2.4559 C.3       1 <0>        -0.1417
     10 C8         -0.0187    1.5258    0.0104 C.3       1 <0>        -0.0382
     11 C9          0.2190    0.0332    0.2485 C.3       1 <0>         0.0833
     12 H1         -0.7287   -0.4532    0.4797 H         1 <0>         0.1365
     13 C10         0.8207   -0.5946   -1.0104 C.3       1 <0>         0.0268
     14 O3          0.9346   -2.0076   -0.8302 O.3       1 <0>        -0.2942
     15 C11         1.4547   -2.7213   -1.8632 C.ar      1 <0>         0.1602
     16 C12         1.8421   -2.0757   -3.0284 C.ar      1 <0>        -0.2097
     17 C13         2.3755   -2.8028   -4.0749 C.ar      1 <0>        -0.0471
     18 C14         2.5136   -4.1742   -3.9658 C.ar      1 <0>        -0.1975
     19 C15         2.1229   -4.8207   -2.8077 C.ar      1 <0>        -0.0465
     20 C16         1.5939   -4.0975   -1.7563 C.ar      1 <0>        -0.1429
     21 C17         3.0904   -4.9656   -5.1112 C.3       1 <0>         0.0520
     22 C18         2.5328   -6.1680   -7.1375 C.3       1 <0>         0.0938
     23 C19         1.3947   -6.5869   -8.0320 C.2       1 <0>         0.0193
     24 C20         0.6579   -7.7744   -7.9225 C.2       1 <0>        -0.2475
     25 C21        -0.2724   -7.7768   -8.9027 C.2       1 <0>         0.0850
     26 N1         -0.1243   -6.6366   -9.6143 N.pl3     1 <0>        -0.4330
     27 H2         -0.6702   -6.3622  -10.4060 H         1 <0>         0.4585
     28 N2          0.9281   -5.9080   -9.0472 N.2       1 <0>        -0.2497
     29 C22        -1.1068   -9.0372   -8.8316 C.3       1 <0>        -0.0591
     30 C23        -0.8560   -9.6031   -7.4167 C.3       1 <0>        -0.1160
     31 C24         0.5384   -9.0287   -7.0838 C.3       1 <0>        -0.0479
     32 O4          1.1213   -0.1368    1.3435 O.3       1 <0>        -0.5410
     33 H3         -4.3842    5.5882    5.8622 H         1 <0>         0.0704
     34 H4         -2.6835    5.6410    6.3850 H         1 <0>         0.0694
     35 H5         -3.4353    7.0798    5.6551 H         1 <0>         0.1118
     36 H6         -3.1539    4.0004    2.0269 H         1 <0>         0.1281
     37 H7         -3.4214    1.7680    3.0428 H         1 <0>         0.1247
     38 H8         -1.7444    1.8221    3.6378 H         1 <0>         0.1019
     39 H9         -2.6068    1.9180    0.7109 H         1 <0>         0.1365
     40 H10        -1.8870    0.5169    1.5394 H         1 <0>         0.1354
     41 H11         0.4065    3.9541    0.8873 H         1 <0>         0.1368
     42 H12        -1.2845    3.8997    0.3349 H         1 <0>         0.1376
     43 H13        -1.0756    5.2835    2.3758 H         1 <0>         0.1304
     44 H14        -0.3542    3.9055    3.2425 H         1 <0>         0.0967
     45 H15         0.9272    2.0101   -0.2324 H         1 <0>         0.1390
     46 H16        -0.7161    1.6552   -0.8172 H         1 <0>         0.1471
     47 H17         0.1747   -0.3880   -1.8637 H         1 <0>         0.0862
     48 H18         1.8084   -0.1706   -1.1913 H         1 <0>         0.0823
     49 H19         1.7306   -1.0050   -3.1156 H         1 <0>         0.1365
     50 H20         2.6814   -2.3001   -4.9805 H         1 <0>         0.1378
     51 H21         2.2318   -5.8920   -2.7249 H         1 <0>         0.1443
     52 H22         1.2892   -4.6029   -0.8518 H         1 <0>         0.1464
     53 H23         3.7950   -4.3442   -5.6638 H         1 <0>         0.1399
     54 H24         3.6071   -5.8432   -4.7226 H         1 <0>         0.1420
     55 H25         3.2336   -5.5548   -7.7042 H         1 <0>         0.1452
     56 H26         3.0457   -7.0539   -6.7630 H         1 <0>         0.1509
     57 H27        -2.1626   -8.8005   -8.9633 H         1 <0>         0.0894
     58 H28        -0.7817   -9.7500   -9.5895 H         1 <0>         0.1008
     59 H29        -1.6050   -9.2391   -6.7134 H         1 <0>         0.0805
     60 H30        -0.8354  -10.6928   -7.4312 H         1 <0>         0.0935
     61 H31         0.6050   -8.7864   -6.0232 H         1 <0>         0.0709
     62 H32         1.3168   -9.7407   -7.3586 H         1 <0>         0.0839
     63 H33         1.9870    0.2718    1.2067 H         1 <0>         0.3917
     64 N3         -0.5633    2.1237    1.2469 N.4       1 <0>        -0.3930
     65 H34         0.0428    1.8688    2.0355 H         1 <0>         0.4347
     66 N4          1.9963   -5.3897   -6.0051 N.4       1 <0>        -0.5165
     67 H35         1.5113   -4.5592   -6.3645 H         1 <0>         0.4318
     68 H36         1.3344   -5.9712   -5.4779 H         1 <0>         0.4324
@<TRIPOS>BOND
     1    1    2 1
     2    1   33 1
     3    1   34 1
     4    1   35 1
     5    2    3 1
     6    3    4 2
     7    3    5 1
     8    5    9 1
     9    5    6 1
    10    5   36 1
    11    6    7 1
    12    6   37 1
    13    6   38 1
    14    7   39 1
    15    7   40 1
    16    7   64 1
    17    8    9 1
    18    8   41 1
    19    8   42 1
    20    8   64 1
    21    9   43 1
    22    9   44 1
    23   10   11 1
    24   10   45 1
    25   10   46 1
    26   10   64 1
    27   11   12 1
    28   11   13 1
    29   11   32 1
    30   13   14 1
    31   13   47 1
    32   13   48 1
    33   14   15 1
    34   15   20 ar
    35   15   16 ar
    36   16   17 ar
    37   16   49 1
    38   17   18 ar
    39   17   50 1
    40   18   19 ar
    41   18   21 1
    42   19   20 ar
    43   19   51 1
    44   20   52 1
    45   21   53 1
    46   21   54 1
    47   21   66 1
    48   22   23 1
    49   22   55 1
    50   22   56 1
    51   22   66 1
    52   23   28 2
    53   23   24 1
    54   24   31 1
    55   24   25 2
    56   25   26 1
    57   25   29 1
    58   26   27 1
    59   26   28 1
    60   29   30 1
    61   29   57 1
    62   29   58 1
    63   30   31 1
    64   30   59 1
    65   30   60 1
    66   31   61 1
    67   31   62 1
    68   32   63 1
    69   64   65 1
    70   66   67 1
    71   66   68 1
@<TRIPOS>MOLECULE
ZINC12702090
   68    70     0     0     0
SMALL
USER_CHARGES
1-[(2R)-2-hydroxy-3-[2-[[(3-isopropylisoxazol-5-yl)methylamino]methyl]-4-methoxy-phenoxy]propyl]piperidin-4-ol
@<TRIPOS>ATOM
      1 C1          4.1609    5.3574   -7.2448 C.3       1 <0>        -0.1454
      2 C2          5.3441    5.8211   -6.3928 C.3       1 <0>        -0.0281
      3 C3          5.2952    7.3423   -6.2369 C.3       1 <0>        -0.1491
      4 C4          5.2685    5.1742   -5.0338 C.2       1 <0>         0.0340
      5 C5          4.5306    5.6316   -3.9179 C.2       1 <0>        -0.1558
      6 C6          4.7914    4.7152   -2.9551 C.2       1 <0>        -0.1347
      7 O1          5.6218    3.8162   -3.5018 O.3       1 <0>         0.1267
      8 N1          5.8704    4.0841   -4.6545 N.2       1 <0>        -0.3277
      9 C7          4.2583    4.7109   -1.5456 C.3       1 <0>         0.1005
     10 C8          2.4441    3.9379   -0.1406 C.3       1 <0>         0.0597
     11 C9          1.1509    3.1642   -0.1357 C.ar      1 <0>        -0.1482
     12 C10        -0.0561    3.8361   -0.1508 C.ar      1 <0>        -0.0883
     13 C11        -1.2461    3.1241   -0.1459 C.ar      1 <0>         0.1163
     14 C12        -1.2245    1.7372   -0.1310 C.ar      1 <0>        -0.1363
     15 C13        -0.0179    1.0655   -0.1106 C.ar      1 <0>        -0.1579
     16 C14         1.1725    1.7778   -0.1156 C.ar      1 <0>         0.1027
     17 O2          2.3606    1.1164   -0.1002 O.3       1 <0>        -0.3139
     18 C15         2.3080   -0.3115   -0.0793 C.3       1 <0>         0.0290
     19 C16         3.7308   -0.8740   -0.0643 C.3       1 <0>         0.0836
     20 H1          4.2815   -0.4471    0.7739 H         1 <0>         0.1383
     21 C17         3.6759   -2.3959    0.0836 C.3       1 <0>        -0.0398
     22 C18         5.8921   -2.2497    1.0468 C.3       1 <0>        -0.0052
     23 C19         7.3353   -2.7380    0.9026 C.3       1 <0>        -0.1834
     24 C20         7.3825   -4.2510    1.1333 C.3       1 <0>         0.0957
     25 C21         6.4504   -4.9411    0.1335 C.3       1 <0>        -0.1466
     26 C22         5.0329   -4.3889    0.2999 C.3       1 <0>         0.0030
     27 O3          8.7184   -4.7215    0.9440 O.3       1 <0>        -0.5512
     28 O4          4.3888   -0.5378   -1.2874 O.3       1 <0>        -0.5468
     29 O5         -2.4342    3.7855   -0.1608 O.3       1 <0>        -0.3067
     30 C23        -3.6204    2.9886   -0.1546 C.3       1 <0>         0.0206
     31 H2          4.2155    5.8253   -8.2277 H         1 <0>         0.0772
     32 H3          4.1957    4.2736   -7.3558 H         1 <0>         0.0576
     33 H4          3.2284    5.6430   -6.7578 H         1 <0>         0.0589
     34 H5          6.2765    5.5355   -6.8798 H         1 <0>         0.0970
     35 H6          6.1381    7.6727   -5.6299 H         1 <0>         0.0618
     36 H7          5.3498    7.8102   -7.2199 H         1 <0>         0.0773
     37 H8          4.3628    7.6279   -5.7499 H         1 <0>         0.0605
     38 H9          3.9040    6.5085   -3.8491 H         1 <0>         0.1866
     39 H10         4.0851    5.7364   -1.2194 H         1 <0>         0.1626
     40 H11         4.9836    4.2369   -0.8842 H         1 <0>         0.1532
     41 H12         2.2584    4.9581    0.1953 H         1 <0>         0.1458
     42 H13         3.1568    3.4586    0.5305 H         1 <0>         0.1437
     43 H14        -0.0729    4.9159   -0.1669 H         1 <0>         0.1540
     44 H15        -2.1512    1.1826   -0.1317 H         1 <0>         0.1469
     45 H16        -0.0011   -0.0142   -0.0953 H         1 <0>         0.1397
     46 H17         1.7770   -0.6425    0.8132 H         1 <0>         0.0898
     47 H18         1.7854   -0.6688   -0.9666 H         1 <0>         0.0833
     48 H19         3.1933   -2.6520    1.0268 H         1 <0>         0.1480
     49 H20         3.1066   -2.8210   -0.7430 H         1 <0>         0.1391
     50 H21         5.8529   -1.1750    0.8690 H         1 <0>         0.1337
     51 H22         5.5350   -2.4643    2.0540 H         1 <0>         0.1334
     52 H23         7.9640   -2.2378    1.6392 H         1 <0>         0.1162
     53 H24         7.6977   -2.5113   -0.1001 H         1 <0>         0.0983
     54 H25         7.0576   -4.4758    2.1492 H         1 <0>         0.0739
     55 H26         6.4470   -6.0149    0.3206 H         1 <0>         0.1238
     56 H27         6.7990   -4.7491   -0.8813 H         1 <0>         0.0975
     57 H28         4.6798   -4.5935    1.3107 H         1 <0>         0.1358
     58 H29         4.3696   -4.8680   -0.4202 H         1 <0>         0.1372
     59 H30         9.3638   -4.3254    1.5454 H         1 <0>         0.3963
     60 H31         3.9528   -0.8857   -2.0772 H         1 <0>         0.3928
     61 H32        -3.6395    2.3724    0.7443 H         1 <0>         0.0629
     62 H33        -4.4951    3.6389   -0.1680 H         1 <0>         0.1149
     63 H34        -3.6315    2.3467   -1.0355 H         1 <0>         0.0620
     64 N2          2.9898    3.9586   -1.5108 N.4       1 <0>        -0.5197
     65 H35         3.1588    2.9951   -1.8227 H         1 <0>         0.4347
     66 H36         2.3124    4.4077   -2.1384 H         1 <0>         0.4348
     67 N3          5.0514   -2.9336    0.0410 N.4       1 <0>        -0.3897
     68 H37         5.4460   -2.7664   -0.8920 H         1 <0>         0.4331
@<TRIPOS>BOND
     1    1    2 1
     2    1   31 1
     3    1   32 1
     4    1   33 1
     5    2    3 1
     6    2    4 1
     7    2   34 1
     8    3   35 1
     9    3   36 1
    10    3   37 1
    11    4    8 2
    12    4    5 1
    13    5    6 2
    14    5   38 1
    15    6    7 1
    16    6    9 1
    17    7    8 1
    18    9   39 1
    19    9   40 1
    20    9   64 1
    21   10   11 1
    22   10   41 1
    23   10   42 1
    24   10   64 1
    25   11   16 ar
    26   11   12 ar
    27   12   13 ar
    28   12   43 1
    29   13   14 ar
    30   13   29 1
    31   14   15 ar
    32   14   44 1
    33   15   16 ar
    34   15   45 1
    35   16   17 1
    36   17   18 1
    37   18   19 1
    38   18   46 1
    39   18   47 1
    40   19   20 1
    41   19   21 1
    42   19   28 1
    43   21   48 1
    44   21   49 1
    45   21   67 1
    46   22   23 1
    47   22   50 1
    48   22   51 1
    49   22   67 1
    50   23   24 1
    51   23   52 1
    52   23   53 1
    53   24   25 1
    54   24   27 1
    55   24   54 1
    56   25   26 1
    57   25   55 1
    58   25   56 1
    59   26   57 1
    60   26   58 1
    61   26   67 1
    62   27   59 1
    63   28   60 1
    64   29   30 1
    65   30   61 1
    66   30   62 1
    67   30   63 1
    68   64   65 1
    69   64   66 1
    70   67   68 1
@<TRIPOS>MOLECULE
ZINC14157932
   58    60     0     0     0
SMALL
USER_CHARGES
(1E)-1-[[(4,6-dimethylpyrimidin-2-yl)amino]-[2-(4-sulfamoylphenyl)ethylamino]methylene]-3-(2-furylmethyl)thiourea
@<TRIPOS>ATOM
      1 C1         -4.2049    3.9825    3.0084 C.3       1 <0>        -0.1053
      2 C2         -3.7600    3.5453    4.3803 C.ar      1 <0>         0.2067
      3 C3         -4.4795    3.9209    5.5040 C.ar      1 <0>        -0.2569
      4 C4         -4.0356    3.4972    6.7468 C.ar      1 <0>         0.2098
      5 N1         -2.9455    2.7519    6.8228 N.ar      1 <0>        -0.5530
      6 C5         -2.2811    2.4106    5.7293 C.ar      1 <0>         0.5507
      7 N2         -2.6751    2.8030    4.5274 N.ar      1 <0>        -0.4881
      8 N3         -1.1408    1.6272    5.8461 N.pl3     1 <0>        -0.6061
      9 C6         -0.4415    1.2649    4.7264 C.2       1 <0>         0.7117
     10 N4         -0.8520    1.6610    3.5339 N.2       1 <0>        -0.5825
     11 C7         -0.2345    1.2156    2.4303 C.2       1 <0>         0.5596
     12 S1         -0.0919   -0.4671    2.1494 S.2       1 <0>        -0.6845
     13 N5          0.2739    2.0926    1.5422 N.pl3     1 <0>        -0.6508
     14 C8          0.9487    1.6059    0.3363 C.3       1 <0>         0.2002
     15 C9          1.4211    2.7791   -0.4831 C.2       1 <0>        -0.0486
     16 C10         2.6184    3.3827   -0.3753 C.2       1 <0>        -0.1760
     17 C11         2.6376    4.4274   -1.3277 C.2       1 <0>        -0.2191
     18 C12         1.4510    4.3998   -1.9605 C.2       1 <0>        -0.0213
     19 O1          0.7204    3.3957   -1.4488 O.3       1 <0>        -0.1694
     20 N6          0.6795    0.4948    4.8413 N.pl3     1 <0>        -0.7176
     21 C13         1.0704   -0.0395    6.1482 C.3       1 <0>         0.1053
     22 C14         2.3523   -0.8616    6.0004 C.3       1 <0>        -0.0975
     23 C15         2.7544   -1.4112    7.3448 C.ar      1 <0>        -0.0242
     24 C16         3.5968   -0.6840    8.1649 C.ar      1 <0>        -0.1350
     25 C17         3.9621   -1.1861    9.3999 C.ar      1 <0>        -0.0153
     26 C18         3.4924   -2.4195    9.8110 C.ar      1 <0>        -0.6758
     27 C19         2.6543   -3.1491    8.9886 C.ar      1 <0>        -0.0141
     28 C20         2.2855   -2.6450    7.7555 C.ar      1 <0>        -0.1322
     29 S2          3.9616   -3.0616   11.3833 S.o2      1 <0>         2.7006
     30 O2          4.3128   -1.9453   12.1894 O.2       1 <0>        -0.9623
     31 O3          2.9520   -3.9870   11.7618 O.2       1 <0>        -0.9615
     32 N7          5.3482   -3.9389   11.1600 N.pl3     1 <0>        -1.2498
     33 C21        -4.7860    3.8806    7.9962 C.3       1 <0>        -0.1076
     34 H1         -3.7380    4.9361    2.7618 H         1 <0>         0.0854
     35 H2         -3.9093    3.2327    2.2746 H         1 <0>         0.0841
     36 H3         -5.2890    4.0949    2.9967 H         1 <0>         0.0821
     37 H4         -5.3663    4.5306    5.4131 H         1 <0>         0.1492
     38 H5         -0.8396    1.3366    6.7212 H         1 <0>         0.4356
     39 H6          0.1931    3.0460    1.7014 H         1 <0>         0.4049
     40 H7          0.2534    1.0078   -0.2527 H         1 <0>         0.1062
     41 H8          1.8042    0.9934    0.6208 H         1 <0>         0.1194
     42 H9          3.4124    3.1201    0.3080 H         1 <0>         0.1515
     43 H10         3.4492    5.1158   -1.5117 H         1 <0>         0.1528
     44 H11         1.1404    5.0683   -2.7499 H         1 <0>         0.2073
     45 H12         1.2174    0.3012    4.0576 H         1 <0>         0.4290
     46 H13         1.2450    0.7845    6.8401 H         1 <0>         0.0746
     47 H14         0.2735   -0.6753    6.5340 H         1 <0>         0.0806
     48 H15         2.1778   -1.6855    5.3085 H         1 <0>         0.0974
     49 H16         3.1492   -0.2258    5.6147 H         1 <0>         0.0893
     50 H17         3.9667    0.2780    7.8421 H         1 <0>         0.1356
     51 H18         4.6167   -0.6160   10.0425 H         1 <0>         0.1450
     52 H19         2.2874   -4.1127    9.3098 H         1 <0>         0.1458
     53 H20         1.6307   -3.2149    7.1130 H         1 <0>         0.1383
     54 H21         5.7379   -4.0133   10.2748 H         1 <0>         0.4169
     55 H22         5.7708   -4.3786   11.9144 H         1 <0>         0.4221
     56 H23        -4.3928    4.8212    8.3820 H         1 <0>         0.0879
     57 H24        -5.8443    3.9976    7.7630 H         1 <0>         0.0848
     58 H25        -4.6635    3.1004    8.7475 H         1 <0>         0.0841
@<TRIPOS>BOND
     1    1    2 1
     2    1   34 1
     3    1   35 1
     4    1   36 1
     5    2    7 ar
     6    2    3 ar
     7    3    4 ar
     8    3   37 1
     9    4    5 ar
    10    4   33 1
    11    5    6 ar
    12    6    7 ar
    13    6    8 1
    14    8    9 1
    15    8   38 1
    16    9   10 2
    17    9   20 1
    18   10   11 1
    19   11   12 2
    20   11   13 1
    21   13   14 1
    22   13   39 1
    23   14   15 1
    24   14   40 1
    25   14   41 1
    26   15   19 1
    27   15   16 2
    28   16   17 1
    29   16   42 1
    30   17   18 2
    31   17   43 1
    32   18   19 1
    33   18   44 1
    34   20   21 1
    35   20   45 1
    36   21   22 1
    37   21   46 1
    38   21   47 1
    39   22   23 1
    40   22   48 1
    41   22   49 1
    42   23   28 ar
    43   23   24 ar
    44   24   25 ar
    45   24   50 1
    46   25   26 ar
    47   25   51 1
    48   26   27 ar
    49   26   29 1
    50   27   28 ar
    51   27   52 1
    52   28   53 1
    53   29   30 2
    54   29   31 2
    55   29   32 1
    56   32   54 1
    57   32   55 1
    58   33   56 1
    59   33   57 1
    60   33   58 1
@<TRIPOS>MOLECULE
ZINC20915508
   60    63     0     0     0
SMALL
USER_CHARGES
ethyl 2-[3-[[4-amino-5-[(N'E)-N'-[(3-hydroxyphenyl)methylene]hydrazino]-1,2,4-triazol-3-yl]sulfanyl]propanoylamino]-5,6-dihydro-4H-cyclopenta[d]thiophene-3-carboxylate
@<TRIPOS>ATOM
      1 C1        -11.3156   17.6865    2.7154 C.3       1 <0>        -0.1552
      2 C2        -11.4270   17.1218    1.2978 C.3       1 <0>         0.0561
      3 O1        -11.6632   15.6907    1.3641 O.3       1 <0>        -0.3504
      4 C3        -11.7865   15.0355    0.1915 C.2       1 <0>         0.5322
      5 O2        -11.6988   15.6446   -0.8577 O.2       1 <0>        -0.4955
      6 C4        -12.0260   13.5908    0.1817 C.2       1 <0>        -0.1995
      7 C5        -13.3841   13.0471    0.1871 C.2       1 <0>        -0.0931
      8 C6        -13.4618   11.7046    0.1823 C.2       1 <0>        -0.2354
      9 S1        -11.7735   11.1534    0.1650 S.3       1 <0>         0.2755
     10 C7        -10.9747   12.6887    0.1627 C.2       1 <0>         0.0842
     11 N1         -9.6139   12.9518    0.1508 N.am      1 <0>        -0.6329
     12 C8         -8.7308   11.9338    0.1386 C.2       1 <0>         0.5198
     13 O3         -9.1268   10.7875    0.1380 O.2       1 <0>        -0.4903
     14 C9         -7.2512   12.2198    0.1257 C.3       1 <0>        -0.1219
     15 C10        -6.4768   10.9004    0.1133 C.3       1 <0>        -0.0897
     16 S2         -4.6958   11.2447    0.0978 S.3       1 <0>        -0.0039
     17 C11        -3.9529    9.6470    0.0846 C.2       1 <0>         0.1882
     18 N2         -4.5901    8.5004    0.0855 N.2       1 <0>        -0.2935
     19 N3         -3.6357    7.4749    0.0668 N.2       1 <0>        -0.3111
     20 C12        -2.4470    8.0279    0.0634 C.2       1 <0>         0.4872
     21 N4         -2.6124    9.3851    0.0710 N.pl3     1 <0>        -0.2647
     22 N5         -1.6125   10.3158    0.0661 N.3       1 <0>        -0.7776
     23 N6         -1.2342    7.3542    0.0487 N.pl3     1 <0>        -0.5611
     24 N7         -1.2110    5.9534    0.0423 N.2       1 <0>        -0.1857
     25 C13        -0.0758    5.3229    0.0285 C.2       1 <0>         0.0912
     26 C14        -0.0514    3.8487    0.0218 C.ar      1 <0>        -0.0109
     27 C15        -1.2483    3.1272    0.0299 C.ar      1 <0>        -0.1220
     28 C16        -1.2212    1.7482    0.0173 C.ar      1 <0>        -0.0804
     29 C17        -0.0126    1.0758    0.0080 C.ar      1 <0>        -0.1469
     30 C18         1.1819    1.7835    0.0004 C.ar      1 <0>         0.1526
     31 C19         1.1675    3.1680    0.0070 C.ar      1 <0>        -0.1893
     32 O4          2.3661    1.1169   -0.0141 O.3       1 <0>        -0.5095
     33 C20       -14.8871   11.2219    0.1911 C.3       1 <0>        -0.0366
     34 C21       -15.7173   12.4530   -0.2348 C.3       1 <0>        -0.1115
     35 C22       -14.8040   13.6148    0.2042 C.3       1 <0>        -0.0582
     36 H1        -11.1367   18.7707    2.6652 H         1 <0>         0.0825
     37 H2        -10.4790   17.2006    3.2389 H         1 <0>         0.0674
     38 H3        -12.2510   17.4941    3.2612 H         1 <0>         0.0685
     39 H4        -12.2636   17.6077    0.7743 H         1 <0>         0.0724
     40 H5        -10.4916   17.3142    0.7519 H         1 <0>         0.0714
     41 H6         -9.2547   13.9915    0.1513 H         1 <0>         0.4463
     42 H7         -6.9981   12.8020   -0.7727 H         1 <0>         0.1172
     43 H8         -6.9811   12.7951    1.0235 H         1 <0>         0.1172
     44 H9         -6.7299   10.3182    1.0116 H         1 <0>         0.1118
     45 H10        -6.7469   10.3251   -0.7845 H         1 <0>         0.1117
     46 H11        -0.5609    9.9932    0.0549 H         1 <0>         0.4366
     47 H12        -1.8589   11.3878    0.0734 H         1 <0>         0.4481
     48 H13        -0.2909    7.9199    0.0421 H         1 <0>         0.4091
     49 H14         0.8675    5.8887    0.0218 H         1 <0>         0.1243
     50 H15        -2.1938    3.6490    0.0414 H         1 <0>         0.1374
     51 H16        -2.1467    1.1916    0.0191 H         1 <0>         0.1342
     52 H17         0.0021   -0.0041    0.0020 H         1 <0>         0.1306
     53 H18         2.0960    3.7195    0.0011 H         1 <0>         0.1309
     54 H19         3.3127    1.6773   -0.0201 H         1 <0>         0.4336
     55 H20       -14.9964   10.3887   -0.5188 H         1 <0>         0.0804
     56 H21       -15.1520   10.8792    1.2023 H         1 <0>         0.0861
     57 H22       -15.8873   12.4226   -1.3212 H         1 <0>         0.0788
     58 H23       -16.6849   12.4415    0.2882 H         1 <0>         0.0860
     59 H24       -15.0498   13.9572    1.2203 H         1 <0>         0.0840
     60 H25       -14.8685   14.4624   -0.4940 H         1 <0>         0.0734
@<TRIPOS>BOND
     1    1    2 1
     2    1   36 1
     3    1   37 1
     4    1   38 1
     5    2    3 1
     6    2   39 1
     7    2   40 1
     8    3    4 1
     9    4    5 2
    10    4    6 1
    11    6   10 2
    12    6    7 1
    13    7   35 1
    14    7    8 2
    15    8    9 1
    16    8   33 1
    17    9   10 1
    18   10   11 1
    19   11   12 am
    20   11   41 1
    21   12   13 2
    22   12   14 1
    23   14   15 1
    24   14   42 1
    25   14   43 1
    26   15   16 1
    27   15   44 1
    28   15   45 1
    29   16   17 1
    30   17   21 1
    31   17   18 2
    32   18   19 1
    33   19   20 2
    34   20   21 1
    35   20   23 1
    36   21   22 1
    37   22   46 1
    38   22   47 1
    39   23   24 1
    40   23   48 1
    41   24   25 2
    42   25   26 1
    43   25   49 1
    44   26   31 ar
    45   26   27 ar
    46   27   28 ar
    47   27   50 1
    48   28   29 ar
    49   28   51 1
    50   29   30 ar
    51   29   52 1
    52   30   31 ar
    53   30   32 1
    54   31   53 1
    55   32   54 1
    56   33   34 1
    57   33   55 1
    58   33   56 1
    59   34   35 1
    60   34   57 1
    61   34   58 1
    62   35   59 1
    63   35   60 1
@<TRIPOS>MOLECULE
ZINC09287035
   39    41     0     0     0
SMALL
USER_CHARGES
1-(3-chlorophenyl)-3-(4-oxo-5,6,7,8-tetrahydro-3H-quinazolin-2-yl)-guanidine
@<TRIPOS>ATOM
      1 C1         -7.9721   -0.2401    3.4526 C.ar      1 <0>        -0.0596
      2 C2         -6.7203    0.2644    3.7472 C.ar      1 <0>        -0.1831
      3 C3         -6.3896    0.5759    5.0596 C.ar      1 <0>         0.1242
      4 C4         -7.3229    0.3894    6.0711 C.ar      1 <0>        -0.1117
      5 C5         -8.5755   -0.1107    5.7694 C.ar      1 <0>         0.0009
      6 C6         -8.8995   -0.4253    4.4609 C.ar      1 <0>        -0.0989
      7 Cl1        -9.7435   -0.3438    7.0323 Cl        1 <0>        -0.0255
      8 N1         -5.1210    1.0817    5.3614 N.pl3     1 <0>        -0.6191
      9 C7         -4.0330    0.7061    4.6067 C.cat     1 <0>         0.7431
     10 N2         -4.1693   -0.2638    3.6345 N.pl3     1 <0>        -0.6351
     11 C8         -3.1005   -0.5907    2.8357 C.2       1 <0>         0.6234
     12 N3         -3.2462   -1.5481    1.8808 N.am      1 <0>        -0.6240
     13 H1         -4.0990   -1.9951    1.7629 H         1 <0>         0.4290
     14 C9         -2.1962   -1.8716    1.0997 C.2       1 <0>         0.5382
     15 O1         -2.3075   -2.7278    0.2377 O.2       1 <0>        -0.4790
     16 C10        -0.9659   -1.2066    1.2928 C.2       1 <0>        -0.2052
     17 C11        -0.8800   -0.2534    2.2553 C.2       1 <0>         0.1866
     18 N4         -1.9530    0.0270    3.0055 N.2       1 <0>        -0.5704
     19 C12         0.3838    0.5232    2.5205 C.3       1 <0>        -0.0768
     20 C13         1.5899   -0.1911    1.9136 C.3       1 <0>        -0.1234
     21 C14         1.2747   -0.5136    0.4480 C.3       1 <0>        -0.1250
     22 C15         0.1937   -1.5927    0.4155 C.3       1 <0>        -0.0630
     23 H2         -8.2279   -0.4862    2.4326 H         1 <0>         0.1556
     24 H3         -5.9980    0.4126    2.9582 H         1 <0>         0.1391
     25 H4         -7.0700    0.6345    7.0920 H         1 <0>         0.1542
     26 H5         -9.8788   -0.8160    4.2272 H         1 <0>         0.1543
     27 H6         -5.0080    1.6972    6.1025 H         1 <0>         0.4508
     28 H7         -2.6613    1.9043    5.5161 H         1 <0>         0.4375
     29 H8         -5.0197   -0.7149    3.5153 H         1 <0>         0.4539
     30 H9          0.5280    0.6207    3.5966 H         1 <0>         0.0952
     31 H10         0.2945    1.5159    2.0792 H         1 <0>         0.1023
     32 H11         1.7825   -1.1146    2.4595 H         1 <0>         0.0750
     33 H12         2.4652    0.4564    1.9670 H         1 <0>         0.0874
     34 H13         0.9139    0.3830   -0.0561 H         1 <0>         0.0718
     35 H14         2.1735   -0.8780   -0.0494 H         1 <0>         0.0850
     36 H15        -0.1570   -1.7194   -0.6087 H         1 <0>         0.0915
     37 H16         0.6146   -2.5337    0.7696 H         1 <0>         0.0898
     38 N5         -2.8316    1.2410    4.7600 N.pl3     1 <0>        -0.7439
     39 H17        -2.0713    0.9883    4.1178 H         1 <0>         0.4550
@<TRIPOS>BOND
     1    1    6 ar
     2    1    2 ar
     3    1   23 1
     4    2    3 ar
     5    2   24 1
     6    3    4 ar
     7    3    8 1
     8    4    5 ar
     9    4   25 1
    10    5    6 ar
    11    5    7 1
    12    6   26 1
    13    8    9 1
    14    8   27 1
    15    9   10 1
    16    9   38 2
    17   10   11 1
    18   10   29 1
    19   11   18 2
    20   11   12 1
    21   12   13 1
    22   12   14 am
    23   14   15 2
    24   14   16 1
    25   16   22 1
    26   16   17 2
    27   17   18 1
    28   17   19 1
    29   19   20 1
    30   19   30 1
    31   19   31 1
    32   20   21 1
    33   20   32 1
    34   20   33 1
    35   21   22 1
    36   21   34 1
    37   21   35 1
    38   22   36 1
    39   22   37 1
    40   28   38 1
    41   38   39 1
@<TRIPOS>MOLECULE
ZINC28350321
   48    50     0     0     0
SMALL
USER_CHARGES
2-amino-6-(2-ethoxy-6-hydroxy-phenyl)-4-(4-piperidyl)pyridine-3-carbonitrile
@<TRIPOS>ATOM
      1 C1          0.9687    4.4186    7.0620 C.3       1 <0>        -0.1510
      2 C2          1.2699    3.1919    6.1986 C.3       1 <0>         0.0476
      3 O1          0.1775    2.9563    5.3081 O.3       1 <0>        -0.3113
      4 C3          0.2858    1.8964    4.4664 C.ar      1 <0>         0.1972
      5 C4          1.4188    1.0988    4.4954 C.ar      1 <0>        -0.2565
      6 C5          1.5312    0.0193    3.6394 C.ar      1 <0>        -0.0146
      7 C6          0.5164   -0.2755    2.7477 C.ar      1 <0>        -0.2024
      8 C7         -0.6237    0.5104    2.7048 C.ar      1 <0>         0.2403
      9 C8         -0.7485    1.6026    3.5711 C.ar      1 <0>        -0.2011
     10 C9         -1.9644    2.4447    3.5365 C.ar      1 <0>         0.2856
     11 C10        -2.6109    2.7688    4.7310 C.ar      1 <0>        -0.2092
     12 C11        -3.7446    3.5542    4.6964 C.ar      1 <0>         0.0479
     13 C12        -4.2098    4.0020    3.4519 C.ar      1 <0>        -0.1671
     14 C13        -3.5075    3.6362    2.2896 C.ar      1 <0>         0.4749
     15 N1         -2.4219    2.8858    2.3702 N.ar      1 <0>        -0.5513
     16 N2         -3.9529    4.0695    1.0529 N.pl3     1 <0>        -0.8531
     17 C14        -5.3826    4.8191    3.3656 C.1       1 <0>         0.2519
     18 N3         -6.3130    5.4673    3.2971 N.1       1 <0>        -0.4112
     19 C15        -4.4666    3.9220    5.9670 C.3       1 <0>        -0.0658
     20 C16        -3.5195    4.6960    6.8880 C.3       1 <0>        -0.1420
     21 C17        -4.2385    5.0122    8.2016 C.3       1 <0>        -0.0012
     22 N4         -4.6629    3.7616    8.8436 N.4       1 <0>        -0.5357
     23 C18        -5.6103    3.0251    7.9972 C.3       1 <0>        -0.0035
     24 C19        -4.9318    2.6483    6.6782 C.3       1 <0>        -0.1426
     25 O2         -1.6189    0.2193    1.8281 O.3       1 <0>        -0.4916
     26 H1          1.8097    4.5999    7.7475 H         1 <0>         0.0834
     27 H2          0.0526    4.2410    7.6444 H         1 <0>         0.0588
     28 H3          0.8273    5.2967    6.4148 H         1 <0>         0.0679
     29 H4          2.1860    3.3695    5.6162 H         1 <0>         0.0695
     30 H5          1.4113    2.3138    6.8458 H         1 <0>         0.0679
     31 H6          2.2164    1.3216    5.1886 H         1 <0>         0.1348
     32 H7          2.4170   -0.5979    3.6675 H         1 <0>         0.1383
     33 H8          0.6129   -1.1207    2.0823 H         1 <0>         0.1383
     34 H9         -2.2271    2.4075    5.6736 H         1 <0>         0.1413
     35 H10        -3.4067    3.7858    0.1412 H         1 <0>         0.4416
     36 H11        -4.8531    4.6976    0.9817 H         1 <0>         0.4352
     37 H12        -5.3337    4.5468    5.7066 H         1 <0>         0.0966
     38 H13        -2.6279    4.0855    7.0937 H         1 <0>         0.0995
     39 H14        -3.2170    5.6335    6.3986 H         1 <0>         0.1144
     40 H15        -3.5554    5.5541    8.8722 H         1 <0>         0.1365
     41 H16        -5.1212    5.6355    7.9957 H         1 <0>         0.1274
     42 H17        -3.7840    3.1248    9.0227 H         1 <0>         0.4500
     43 H18        -5.9327    2.1110    8.5173 H         1 <0>         0.1373
     44 H19        -6.4861    3.6578    7.7908 H         1 <0>         0.1274
     45 H20        -5.6457    2.1104    6.0372 H         1 <0>         0.1146
     46 H21        -4.0638    2.0039    6.8814 H         1 <0>         0.0979
     47 H22        -2.5234    0.8444    1.7955 H         1 <0>         0.4314
     48 H23        -5.1523    3.9892    9.8021 H         1 <0>         0.4559
@<TRIPOS>BOND
     1    1    2 1
     2    1   26 1
     3    1   27 1
     4    1   28 1
     5    2    3 1
     6    2   29 1
     7    2   30 1
     8    3    4 1
     9    4    9 ar
    10    4    5 ar
    11    5    6 ar
    12    5   31 1
    13    6    7 ar
    14    6   32 1
    15    7    8 ar
    16    7   33 1
    17    8    9 ar
    18    8   25 1
    19    9   10 1
    20   10   15 ar
    21   10   11 ar
    22   11   12 ar
    23   11   34 1
    24   12   13 ar
    25   12   19 1
    26   13   14 ar
    27   13   17 1
    28   14   15 ar
    29   14   16 1
    30   16   35 1
    31   16   36 1
    32   17   18 3
    33   19   24 1
    34   19   20 1
    35   19   37 1
    36   20   21 1
    37   20   38 1
    38   20   39 1
    39   21   22 1
    40   21   40 1
    41   21   41 1
    42   22   23 1
    43   22   42 1
    44   22   48 1
    45   23   24 1
    46   23   43 1
    47   23   44 1
    48   24   45 1
    49   24   46 1
    50   25   47 1
@<TRIPOS>MOLECULE
ZINC40751146
   39    39     0     0     0
SMALL
USER_CHARGES

@<TRIPOS>ATOM
      1 C1          1.4294   -0.6799    0.4006 C.ar      1 <0>        -0.0936
      2 C2          2.4816    0.1966    0.5705 C.ar      1 <0>        -0.0205
      3 C3          2.6224    1.2848   -0.2715 C.ar      1 <0>        -0.6455
      4 C4          1.7095    1.5022   -1.2898 C.ar      1 <0>         0.0498
      5 C5          0.6527    0.6321   -1.4703 C.ar      1 <0>        -0.0863
      6 C6          0.5060   -0.4673   -0.6236 C.ar      1 <0>         0.0280
      7 C7         -0.5876   -1.3737   -0.8051 C.1       1 <0>        -0.0022
      8 C8         -1.4843   -2.1167   -0.9539 C.1       1 <0>        -0.2586
      9 C9         -2.6085   -3.0484   -1.1405 C.3       1 <0>         0.1408
     10 N1         -3.4283   -2.6055   -2.2762 N.4       1 <0>        -0.6378
     11 Cl1         1.8938    2.8714   -2.3410 Cl        1 <0>        -0.0163
     12 S1          3.9685    2.3993   -0.0472 S.o2      1 <0>         2.6740
     13 O1          4.9659    2.0261   -0.9881 O.2       1 <0>        -0.9323
     14 O2          3.4114    3.7059   -0.0055 O.2       1 <0>        -0.9296
     15 N2          4.6015    2.1066    1.4548 N.pl3     1 <0>        -0.9787
     16 C10         5.6079    1.0571    1.6337 C.3       1 <0>         0.1179
     17 C11         7.0058    1.6767    1.5805 C.3       1 <0>         0.0545
     18 O3          7.1784    2.5592    2.6911 O.3       1 <0>        -0.5688
     19 C12         4.1551    2.8971    2.6046 C.3       1 <0>         0.1106
     20 C13         3.0350    2.1511    3.3324 C.3       1 <0>         0.0523
     21 O4          3.5510    0.9384    3.8848 O.3       1 <0>        -0.5642
     22 H1          1.3233   -1.5313    1.0564 H         1 <0>         0.1476
     23 H2          3.1967    0.0327    1.3631 H         1 <0>         0.1612
     24 H3         -0.0591    0.8024   -2.2645 H         1 <0>         0.1539
     25 H4         -2.2227   -4.0483   -1.3390 H         1 <0>         0.1573
     26 H5         -3.2187   -3.0671   -0.2375 H         1 <0>         0.1572
     27 H6         -3.7855   -1.6799   -2.0924 H         1 <0>         0.4387
     28 H7         -2.8635   -2.5882   -3.1122 H         1 <0>         0.4393
     29 H8          5.4612    0.5739    2.5997 H         1 <0>         0.1094
     30 H9          5.5075    0.3181    0.8388 H         1 <0>         0.0906
     31 H10         7.7554    0.8865    1.6244 H         1 <0>         0.0614
     32 H11         7.1206    2.2351    0.6514 H         1 <0>         0.0546
     33 H12         8.0442    2.9886    2.7214 H         1 <0>         0.3832
     34 H13         4.9916    3.0514    3.2862 H         1 <0>         0.1166
     35 H14         3.7845    3.8625    2.2599 H         1 <0>         0.1092
     36 H15         2.6424    2.7771    4.1337 H         1 <0>         0.0649
     37 H16         2.2361    1.9185    2.6284 H         1 <0>         0.0390
     38 H17         2.8943    0.4128    4.3619 H         1 <0>         0.3767
     39 H18        -4.1989   -3.2441   -2.4041 H         1 <0>         0.4459
@<TRIPOS>BOND
     1    1    6 ar
     2    1    2 ar
     3    1   22 1
     4    2    3 ar
     5    2   23 1
     6    3    4 ar
     7    3   12 1
     8    4    5 ar
     9    4   11 1
    10    5    6 ar
    11    5   24 1
    12    6    7 1
    13    7    8 3
    14    8    9 1
    15    9   10 1
    16    9   25 1
    17    9   26 1
    18   10   27 1
    19   10   28 1
    20   10   39 1
    21   12   13 2
    22   12   14 2
    23   12   15 1
    24   15   16 1
    25   15   19 1
    26   16   17 1
    27   16   29 1
    28   16   30 1
    29   17   18 1
    30   17   31 1
    31   17   32 1
    32   18   33 1
    33   19   20 1
    34   19   34 1
    35   19   35 1
    36   20   21 1
    37   20   36 1
    38   20   37 1
    39   21   38 1
@<TRIPOS>MOLECULE
ZINC44254626
   42    42     0     0     0
SMALL
USER_CHARGES

@<TRIPOS>ATOM
      1 C1         -0.0187    1.5258    0.0104 C.3       1 <0>        -0.1473
      2 C2          0.0021   -0.0041    0.0020 C.3       1 <0>        -0.5214
      3 C3          0.7421   -0.5109    1.2415 C.3       1 <0>        -0.1423
      4 C4         -1.4333   -0.5336    0.0129 C.3       1 <0>        -0.1449
      5 S1          0.8511   -0.5891   -1.4904 S.o2      1 <0>         2.4939
      6 O1          1.0369   -1.9965   -1.4280 O.2       1 <0>        -0.9221
      7 O2          0.2851    0.0164   -2.6447 O.2       1 <0>        -0.9086
      8 C5          2.4757    0.0842   -1.3805 C.2       1 <0>        -0.6069
      9 C6          3.5432   -0.7401   -1.2445 C.2       1 <0>         0.1319
     10 C7          4.8500   -0.1985   -1.1561 C.2       1 <0>        -0.2136
     11 C8          6.0648   -0.8594   -1.0211 C.2       1 <0>        -0.1124
     12 C9          7.1775   -0.0537   -0.9619 C.2       1 <0>        -0.2011
     13 C10         7.0226    1.2909   -1.0367 C.2       1 <0>        -0.2138
     14 S2          5.3645    1.5078   -1.1970 S.3       1 <0>         0.3405
     15 C11         6.1569   -2.3616   -0.9440 C.3       1 <0>         0.1146
     16 H1          5.4528   -2.8053   -1.6479 H         1 <0>         0.1658
     17 C12         5.8172   -2.8212    0.4752 C.3       1 <0>        -0.1752
     18 C13         5.7890   -4.3272    0.5223 C.2       1 <0>         0.5139
     19 O3          6.0181   -4.9697   -0.4806 O.2       1 <0>        -0.5544
     20 N1          5.5093   -4.9602    1.6788 N.am      1 <0>        -0.8306
     21 N2          7.5216   -2.7866   -1.2829 N.4       1 <0>        -0.6333
     22 C14         2.6683    1.5022   -1.4347 C.1       1 <0>         0.2418
     23 N3          2.8211    2.6270   -1.4778 N.1       1 <0>        -0.3489
     24 H2          1.0039    1.9031    0.0027 H         1 <0>         0.0623
     25 H3         -0.5459    1.8868   -0.8726 H         1 <0>         0.0826
     26 H4         -0.5289    1.8773    0.9072 H         1 <0>         0.0917
     27 H5          0.2319   -0.1594    2.1383 H         1 <0>         0.0894
     28 H6          0.7568   -1.6008    1.2356 H         1 <0>         0.0814
     29 H7          1.7647   -0.1336    1.2338 H         1 <0>         0.0662
     30 H8         -1.9605   -0.1726   -0.8702 H         1 <0>         0.0789
     31 H9         -1.4185   -1.6235    0.0069 H         1 <0>         0.0789
     32 H10        -1.9435   -0.1821    0.9097 H         1 <0>         0.0941
     33 H11         3.3980   -1.8095   -1.2036 H         1 <0>         0.1833
     34 H12         8.1615   -0.4862   -0.8568 H         1 <0>         0.1378
     35 H13         7.7906    2.0496   -1.0050 H         1 <0>         0.2031
     36 H14         6.5725   -2.4501    1.1679 H         1 <0>         0.1287
     37 H15         4.8402   -2.4305    0.7596 H         1 <0>         0.1471
     38 H16         5.3261   -4.4464    2.4809 H         1 <0>         0.4128
     39 H17         5.4912   -5.9296    1.7091 H         1 <0>         0.4187
     40 H18         7.7456   -2.4835   -2.2188 H         1 <0>         0.4414
     41 H19         8.1733   -2.3758   -0.6313 H         1 <0>         0.4294
     42 H20         7.5833   -3.7924   -1.2313 H         1 <0>         0.4462
@<TRIPOS>BOND
     1    1    2 1
     2    1   24 1
     3    1   25 1
     4    1   26 1
     5    2    3 1
     6    2    4 1
     7    2    5 1
     8    3   27 1
     9    3   28 1
    10    3   29 1
    11    4   30 1
    12    4   31 1
    13    4   32 1
    14    5    6 2
    15    5    7 2
    16    5    8 1
    17    8    9 2
    18    8   22 1
    19    9   10 1
    20    9   33 1
    21   10   14 1
    22   10   11 2
    23   11   12 1
    24   11   15 1
    25   12   13 2
    26   12   34 1
    27   13   14 1
    28   13   35 1
    29   15   16 1
    30   15   17 1
    31   15   21 1
    32   17   18 1
    33   17   36 1
    34   17   37 1
    35   18   19 2
    36   18   20 am
    37   20   38 1
    38   20   39 1
    39   21   40 1
    40   21   41 1
    41   21   42 1
    42   22   23 3
@<TRIPOS>MOLECULE
ZINC63171099
   37    38     0     0     0
SMALL
USER_CHARGES

@<TRIPOS>ATOM
      1 C1         -0.0187    1.5258    0.0104 C.3       1 <0>        -0.1841
      2 C2          0.0021   -0.0041    0.0020 C.3       1 <0>         0.0283
      3 H1          0.5293   -0.3651    0.8851 H         1 <0>         0.1477
      4 C3          0.7182   -0.4975   -1.2568 C.3       1 <0>        -0.1620
      5 C4          0.8493   -2.0210   -1.2049 C.3       1 <0>         0.0930
      6 N1          1.5350   -2.4934   -2.4103 N.pl3     1 <0>        -1.1107
      7 S1          2.1460   -4.0316   -2.4661 S.o2      1 <0>         2.6951
      8 O1          2.7181   -4.1947   -3.7566 O.2       1 <0>        -0.9372
      9 O2          2.8945   -4.2149   -1.2723 O.2       1 <0>        -0.9294
     10 C5          0.7783   -5.1390   -2.3780 C.ar      1 <0>        -0.6984
     11 C6          0.4832   -5.9641   -3.4494 C.ar      1 <0>         0.0506
     12 C7         -0.5861   -6.8278   -3.3770 C.ar      1 <0>        -0.1508
     13 C8         -1.3793   -6.8850   -2.2376 C.ar      1 <0>         0.2225
     14 C9         -1.0773   -6.0518   -1.1629 C.ar      1 <0>        -0.1509
     15 C10        -0.0004   -5.1902   -1.2352 C.ar      1 <0>         0.0783
     16 Cl1         0.3737   -4.1607    0.1115 Cl        1 <0>        -0.0499
     17 N2         -2.3928   -7.8299   -2.4024 N.am      1 <0>        -0.6589
     18 C11        -2.3384   -8.4300   -3.6034 C.2       1 <0>         0.5301
     19 O3         -3.0912   -9.2873   -4.0150 O.2       1 <0>        -0.4707
     20 C12        -1.1611   -7.8350   -4.3462 C.3       1 <0>        -0.1193
     21 N3         -1.3761   -0.5125    0.0124 N.4       1 <0>        -0.6417
     22 H2          1.0039    1.9031    0.0027 H         1 <0>         0.1104
     23 H3         -0.5459    1.8868   -0.8726 H         1 <0>         0.0847
     24 H4         -0.5289    1.8773    0.9072 H         1 <0>         0.0865
     25 H5          0.1430   -0.2121   -2.1375 H         1 <0>         0.1016
     26 H6          1.7103   -0.0491   -1.3098 H         1 <0>         0.1272
     27 H7          1.4245   -2.3064   -0.3242 H         1 <0>         0.0999
     28 H8         -0.1428   -2.4694   -1.1520 H         1 <0>         0.0599
     29 H9          1.6311   -1.9053   -3.1756 H         1 <0>         0.4273
     30 H10         1.0910   -5.9299   -4.3415 H         1 <0>         0.1659
     31 H11        -1.6836   -6.0830   -0.2697 H         1 <0>         0.1513
     32 H12        -3.0597   -8.0308   -1.7273 H         1 <0>         0.4222
     33 H13        -1.4955   -7.3398   -5.2579 H         1 <0>         0.1378
     34 H14        -0.4259   -8.6059   -4.5768 H         1 <0>         0.1391
     35 H15        -1.8641   -0.1783   -0.8050 H         1 <0>         0.4354
     36 H16        -1.3624   -1.5214    0.0069 H         1 <0>         0.4297
     37 H17        -1.8484   -0.1871    0.8426 H         1 <0>         0.4396
@<TRIPOS>BOND
     1    1    2 1
     2    1   22 1
     3    1   23 1
     4    1   24 1
     5    2    3 1
     6    2    4 1
     7    2   21 1
     8    4    5 1
     9    4   25 1
    10    4   26 1
    11    5    6 1
    12    5   27 1
    13    5   28 1
    14    6    7 1
    15    6   29 1
    16    7    8 2
    17    7    9 2
    18    7   10 1
    19   10   15 ar
    20   10   11 ar
    21   11   12 ar
    22   11   30 1
    23   12   20 1
    24   12   13 ar
    25   13   14 ar
    26   13   17 1
    27   14   15 ar
    28   14   31 1
    29   15   16 1
    30   17   18 am
    31   17   32 1
    32   18   19 2
    33   18   20 1
    34   20   33 1
    35   20   34 1
    36   21   35 1
    37   21   36 1
    38   21   37 1
@<TRIPOS>MOLECULE
ZINC25215835
   37    38     0     0     0
SMALL
USER_CHARGES
(2R)-N-carbamoyl-2-[[(4S)-6-chlorothiochroman-4-yl]amino]propanamide
@<TRIPOS>ATOM
      1 C1          5.4023    1.3726    0.9460 C.3       1 <0>        -0.1831
      2 C2          4.8062    2.6500    0.3512 C.3       1 <0>         0.0113
      3 H1          4.8130    2.6129   -0.7482 H         1 <0>         0.1671
      4 C3          5.5978    3.8417    0.8249 C.2       1 <0>         0.5157
      5 O1          5.0522    4.7179    1.4607 O.2       1 <0>        -0.4568
      6 N1          6.9123    3.9332    0.5418 N.am      1 <0>        -0.6890
      7 C4          7.6202    4.9990    0.9654 C.2       1 <0>         0.6976
      8 O2          7.0732    5.8774    1.6028 O.2       1 <0>        -0.5309
      9 N2          8.9347    5.0906    0.6823 N.am      1 <0>        -0.8726
     10 N3          3.4092    2.7864    0.7846 N.4       1 <0>        -0.5345
     11 C5          2.5252    1.9221   -0.0087 C.3       1 <0>         0.0875
     12 H2          3.0793    1.4499   -0.8333 H         1 <0>         0.1527
     13 C6          1.9889    0.8217    0.8899 C.3       1 <0>        -0.1550
     14 C7          1.1024   -0.1175    0.0587 C.3       1 <0>        -0.1160
     15 S1         -0.4310    0.7844   -0.3128 S.3       1 <0>        -0.0568
     16 C8          0.1451    2.3752   -0.8166 C.ar      1 <0>        -0.0482
     17 C9          1.4555    2.7734   -0.6262 C.ar      1 <0>        -0.1365
     18 C10         1.8344    4.0494   -1.0359 C.ar      1 <0>        -0.1206
     19 C11         0.9291    4.9029   -1.6309 C.ar      1 <0>        -0.0217
     20 C12        -0.3793    4.4971   -1.8279 C.ar      1 <0>        -0.0647
     21 C13        -0.7691    3.2406   -1.4172 C.ar      1 <0>        -0.0717
     22 Cl1         1.4308    6.4873   -2.1326 Cl        1 <0>        -0.0343
     23 H3          4.8245    0.5028    0.6002 H         1 <0>         0.1011
     24 H4          5.3626    1.4262    2.0440 H         1 <0>         0.0956
     25 H5          6.4483    1.2705    0.6214 H         1 <0>         0.1136
     26 H6          7.4073    3.1380   -0.0350 H         1 <0>         0.4425
     27 H7          9.5125    5.9605    1.0280 H         1 <0>         0.4559
     28 H8          9.4298    4.2955    0.1055 H         1 <0>         0.4228
     29 H9          3.3243    2.5009    1.8435 H         1 <0>         0.4565
     30 H10         2.8294    0.2554    1.3176 H         1 <0>         0.1158
     31 H11         1.3962    1.2678    1.7021 H         1 <0>         0.1105
     32 H12         1.6263   -0.3903   -0.8693 H         1 <0>         0.1087
     33 H13         0.8866   -1.0268    0.6388 H         1 <0>         0.1413
     34 H14         2.8528    4.3758   -0.8849 H         1 <0>         0.1293
     35 H15        -1.0903    5.1613   -2.2966 H         1 <0>         0.1565
     36 H16        -1.7904    2.9219   -1.5650 H         1 <0>         0.1542
     37 H17         3.0867    3.8306    0.6594 H         1 <0>         0.4568
@<TRIPOS>BOND
     1    1    2 1
     2    1   23 1
     3    1   24 1
     4    1   25 1
     5    2    3 1
     6    2    4 1
     7    2   10 1
     8    4    5 2
     9    4    6 am
    10    6    7 am
    11    6   26 1
    12    7    8 2
    13    7    9 am
    14    9   27 1
    15    9   28 1
    16   10   11 1
    17   10   29 1
    18   10   37 1
    19   11   12 1
    20   11   17 1
    21   11   13 1
    22   13   14 1
    23   13   30 1
    24   13   31 1
    25   14   15 1
    26   14   32 1
    27   14   33 1
    28   15   16 1
    29   16   21 ar
    30   16   17 ar
    31   17   18 ar
    32   18   19 ar
    33   18   34 1
    34   19   20 ar
    35   19   22 1
    36   20   21 ar
    37   20   35 1
    38   21   36 1
@<TRIPOS>MOLECULE
ZINC40620970
   45    46     0     0     0
SMALL
USER_CHARGES

@<TRIPOS>ATOM
      1 C1         -0.0187    1.5258    0.0104 C.3       1 <0>        -0.1840
      2 C2          0.0021   -0.0041    0.0020 C.3       1 <0>         0.0286
      3 C3         -1.4333   -0.5336    0.0129 C.3       1 <0>        -0.1827
      4 N1          0.6897   -0.4778   -1.2066 N.4       1 <0>        -0.3948
      5 C4          0.8335   -1.9561   -1.1768 C.3       1 <0>        -0.0034
      6 C5          2.0035   -2.2526   -2.1393 C.3       1 <0>        -0.1505
      7 C6          2.8285   -0.9498   -2.1807 C.3       1 <0>        -0.1182
      8 H1          2.8548   -0.5504   -3.1945 H         1 <0>         0.1197
      9 C7          2.0875    0.0243   -1.2397 C.3       1 <0>        -0.0013
     10 C8          4.2494   -1.2042   -1.6737 C.3       1 <0>         0.1213
     11 N2          4.9500   -2.0893   -2.6076 N.pl3     1 <0>        -1.1204
     12 S1          6.5968   -2.2425   -2.5259 S.o2      1 <0>         2.6953
     13 O1          6.9680   -3.1776   -3.5294 O.2       1 <0>        -0.9455
     14 O2          7.1256   -0.9243   -2.4800 O.2       1 <0>        -0.9464
     15 C9          6.9742   -2.9907   -0.9759 C.ar      1 <0>        -0.6393
     16 C10         7.1921   -2.1996    0.1368 C.ar      1 <0>        -0.0696
     17 C11         7.4882   -2.7812    1.3560 C.ar      1 <0>        -0.1155
     18 C12         7.5672   -4.1596    1.4652 C.ar      1 <0>         0.0859
     19 C13         7.3478   -4.9575    0.3444 C.ar      1 <0>         0.1806
     20 C14         7.0461   -4.3673   -0.8742 C.ar      1 <0>        -0.0894
     21 N3          7.4269   -6.3510    0.4488 N.pl3     1 <0>        -0.8675
     22 O3          7.8588   -4.7329    2.6636 O.3       1 <0>        -0.4888
     23 H2          1.0039    1.9031    0.0027 H         1 <0>         0.0815
     24 H3         -0.5459    1.8868   -0.8726 H         1 <0>         0.0808
     25 H4         -0.5289    1.8773    0.9072 H         1 <0>         0.1050
     26 H5          0.5293   -0.3651    0.8851 H         1 <0>         0.1354
     27 H6         -1.9605   -0.1726   -0.8702 H         1 <0>         0.0806
     28 H7         -1.4185   -1.6235    0.0069 H         1 <0>         0.0797
     29 H8         -1.9435   -0.1821    0.9097 H         1 <0>         0.1052
     30 H9          1.0751   -2.2944   -0.1692 H         1 <0>         0.1326
     31 H10        -0.0801   -2.4341   -1.5304 H         1 <0>         0.1349
     32 H11         2.6104   -3.0730   -1.7561 H         1 <0>         0.1163
     33 H12         1.6249   -2.4927   -3.1329 H         1 <0>         0.1049
     34 H13         2.1181    1.0374   -1.6407 H         1 <0>         0.1408
     35 H14         2.5253   -0.0040   -0.2419 H         1 <0>         0.1370
     36 H15         4.7840   -0.2572   -1.6003 H         1 <0>         0.0969
     37 H16         4.2059   -1.6740   -0.6911 H         1 <0>         0.0779
     38 H17         4.4492   -2.5855   -3.2738 H         1 <0>         0.4213
     39 H18         7.1312   -1.1246    0.0536 H         1 <0>         0.1414
     40 H19         7.6582   -2.1603    2.2232 H         1 <0>         0.1411
     41 H20         6.8710   -4.9831   -1.7440 H         1 <0>         0.1433
     42 H21         7.6346   -6.7625    1.3023 H         1 <0>         0.4070
     43 H22         7.2739   -6.9053   -0.3324 H         1 <0>         0.4046
     44 H23         7.0818   -4.9328    3.2035 H         1 <0>         0.3909
     45 H24         0.1904   -0.1866   -2.0337 H         1 <0>         0.4270
@<TRIPOS>BOND
     1    1    2 1
     2    1   23 1
     3    1   24 1
     4    1   25 1
     5    2    3 1
     6    2    4 1
     7    2   26 1
     8    3   27 1
     9    3   28 1
    10    3   29 1
    11    4    9 1
    12    4    5 1
    13    4   45 1
    14    5    6 1
    15    5   30 1
    16    5   31 1
    17    6    7 1
    18    6   32 1
    19    6   33 1
    20    7    8 1
    21    7    9 1
    22    7   10 1
    23    9   34 1
    24    9   35 1
    25   10   11 1
    26   10   36 1
    27   10   37 1
    28   11   12 1
    29   11   38 1
    30   12   13 2
    31   12   14 2
    32   12   15 1
    33   15   20 ar
    34   15   16 ar
    35   16   17 ar
    36   16   39 1
    37   17   18 ar
    38   17   40 1
    39   18   19 ar
    40   18   22 1
    41   19   20 ar
    42   19   21 1
    43   20   41 1
    44   21   42 1
    45   21   43 1
    46   22   44 1
@<TRIPOS>MOLECULE
ZINC45585772
   46    46     0     0     0
SMALL
USER_CHARGES

@<TRIPOS>ATOM
      1 C1          0.9425   -0.6102    0.6993 C.3       1 <0>        -0.1076
      2 C2          0.0470    0.1567   -0.2393 C.2       1 <0>         0.1859
      3 C3         -1.2787    0.3033    0.0516 C.2       1 <0>        -0.2869
      4 C4         -2.0947    1.0228   -0.8389 C.2       1 <0>         0.5278
      5 O1         -3.2835    1.1733   -0.6095 O.2       1 <0>        -0.5232
      6 N1         -1.5375    1.5446   -1.9527 N.am      1 <0>        -0.6150
      7 C5         -0.2086    1.3662   -2.1909 C.2       1 <0>         0.3704
      8 N2          0.5510    0.6942   -1.3471 N.2       1 <0>        -0.5446
      9 H1         -2.0819    2.0443   -2.5810 H         1 <0>         0.4221
     10 S1          0.5099    2.0506   -3.6468 S.3       1 <0>         0.0020
     11 C6          2.2561    1.5704   -3.5420 C.3       1 <0>        -0.1029
     12 C7          3.0070    2.1081   -4.7618 C.3       1 <0>        -0.1117
     13 C8          4.4798    1.7030   -4.6733 C.3       1 <0>        -0.1297
     14 C9          5.2307    2.2407   -5.8931 C.3       1 <0>         0.0395
     15 C10         4.6171    1.6577   -7.1676 C.3       1 <0>        -0.1733
     16 C11         5.1242    3.7436   -5.9263 C.2       1 <0>         0.5204
     17 O2          4.3254    4.2787   -6.6656 O.2       1 <0>        -0.4766
     18 N3          5.9166    4.4930   -5.1345 N.am      1 <0>        -0.8523
     19 N4          6.6448    1.8518   -5.8082 N.4       1 <0>        -0.5006
     20 C12         7.3271    2.2101   -7.0588 C.3       1 <0>         0.0107
     21 C13         7.3904    3.7334   -7.1869 C.3       1 <0>        -0.2005
     22 C14         8.7469    1.6399   -7.0466 C.3       1 <0>        -0.1813
     23 H2          0.9506   -1.6625    0.4152 H         1 <0>         0.0888
     24 H3          1.9552   -0.2108    0.6427 H         1 <0>         0.0805
     25 H4          0.5697   -0.5119    1.7188 H         1 <0>         0.0864
     26 H5         -1.6940   -0.1268    0.9510 H         1 <0>         0.1611
     27 H6          2.6932    1.9858   -2.6340 H         1 <0>         0.1060
     28 H7          2.3331    0.4834   -3.5180 H         1 <0>         0.1085
     29 H8          2.5699    1.6927   -5.6697 H         1 <0>         0.0963
     30 H9          2.9300    3.1951   -4.7858 H         1 <0>         0.0889
     31 H10         4.9170    2.1184   -3.7653 H         1 <0>         0.0989
     32 H11         4.5569    0.6160   -4.6493 H         1 <0>         0.1117
     33 H12         3.5679    1.9462   -7.2306 H         1 <0>         0.1205
     34 H13         5.1521    2.0407   -8.0366 H         1 <0>         0.0915
     35 H14         4.6942    0.5706   -7.1436 H         1 <0>         0.0969
     36 H15         6.5555    4.0650   -4.5433 H         1 <0>         0.3968
     37 H16         5.8480    5.4603   -5.1559 H         1 <0>         0.4271
     38 H17         7.0807    2.3348   -5.0369 H         1 <0>         0.4201
     39 H18         6.7769    1.7969   -7.9041 H         1 <0>         0.1501
     40 H19         7.7009    4.1655   -6.2356 H         1 <0>         0.0866
     41 H20         8.1093    4.0034   -7.9605 H         1 <0>         0.1093
     42 H21         6.4061    4.1166   -7.4560 H         1 <0>         0.0890
     43 H22         8.7018    0.5547   -6.9553 H         1 <0>         0.0844
     44 H23         9.2532    1.9058   -7.9745 H         1 <0>         0.1101
     45 H24         9.2971    2.0531   -6.2012 H         1 <0>         0.0824
     46 H25         6.7115    0.8557   -5.6621 H         1 <0>         0.4353
@<TRIPOS>BOND
     1    1   23 1
     2    1   24 1
     3    1   25 1
     4    1    2 1
     5    2    3 2
     6    2    8 1
     7    3    4 1
     8    3   26 1
     9    4    6 am
    10    4    5 2
    11    6    7 1
    12    6    9 1
    13    7    8 2
    14    7   10 1
    15   10   11 1
    16   11   12 1
    17   11   27 1
    18   11   28 1
    19   12   13 1
    20   12   29 1
    21   12   30 1
    22   13   14 1
    23   13   31 1
    24   13   32 1
    25   14   15 1
    26   14   16 1
    27   14   19 1
    28   15   33 1
    29   15   34 1
    30   15   35 1
    31   16   17 2
    32   16   18 am
    33   18   36 1
    34   18   37 1
    35   19   20 1
    36   19   38 1
    37   19   46 1
    38   20   21 1
    39   20   22 1
    40   20   39 1
    41   21   40 1
    42   21   41 1
    43   21   42 1
    44   22   43 1
    45   22   44 1
    46   22   45 1
@<TRIPOS>MOLECULE
ZINC49574667
   46    47     0     0     0
SMALL
USER_CHARGES

@<TRIPOS>ATOM
      1 C1         -0.0178    1.4608    0.0101 C.3       1 <0>         0.0827
      2 N1          0.0021   -0.0041    0.0020 N.pl3     1 <0>        -1.1204
      3 S1          0.7184   -0.8155   -1.2513 S.o2      1 <0>         2.6967
      4 O1          0.5990   -2.2010   -0.9591 O.2       1 <0>        -0.9571
      5 O2          0.2109   -0.2430   -2.4487 O.2       1 <0>        -0.9541
      6 C2          2.4385   -0.4369   -1.2016 C.ar      1 <0>        -0.6661
      7 C3          2.9238    0.6568   -1.8944 C.ar      1 <0>        -0.0279
      8 C4          4.2725    0.9594   -1.8596 C.ar      1 <0>        -0.1698
      9 C5          5.1426    0.1654   -1.1281 C.ar      1 <0>         0.1840
     10 C6          4.6530   -0.9376   -0.4288 C.ar      1 <0>         0.1459
     11 C7          3.2982   -1.2310   -0.4654 C.ar      1 <0>        -0.0565
     12 N2          5.5262   -1.7438    0.3114 N.pl3     1 <0>        -0.8806
     13 N3          6.5088    0.4697   -1.0918 N.pl3     1 <0>        -0.7471
     14 C8          7.0209    1.6286   -1.8274 C.3       1 <0>         0.1050
     15 C9          8.5333    1.7353   -1.6222 C.3       1 <0>        -0.0215
     16 N4          9.0468    2.8972   -2.3598 N.4       1 <0>        -0.3782
     17 C10         8.8558    2.6843   -3.7995 C.3       1 <0>        -0.0148
     18 C11         9.3147    3.9256   -4.5678 C.3       1 <0>        -0.1457
     19 C12        10.7974    4.1784   -4.2798 C.3       1 <0>        -0.1403
     20 C13        10.9959    4.3250   -2.7684 C.3       1 <0>        -0.1462
     21 C14        10.4747    3.0689   -2.0668 C.3       1 <0>        -0.0061
     22 H1          1.0048    1.8381    0.0023 H         1 <0>         0.0580
     23 H2         -0.5450    1.8219   -0.8730 H         1 <0>         0.0704
     24 H3         -0.5280    1.8123    0.9069 H         1 <0>         0.0850
     25 H4         -0.4044   -0.4986    0.7308 H         1 <0>         0.4211
     26 H5          2.2475    1.2763   -2.4647 H         1 <0>         0.1419
     27 H6          4.6483    1.8141   -2.4025 H         1 <0>         0.1275
     28 H7          2.9151   -2.0820    0.0782 H         1 <0>         0.1439
     29 H8          6.4732   -1.5355    0.3384 H         1 <0>         0.3901
     30 H9          5.1842   -2.5106    0.7972 H         1 <0>         0.4079
     31 H10         7.1162   -0.0867   -0.5796 H         1 <0>         0.4020
     32 H11         6.8058    1.5088   -2.8893 H         1 <0>         0.0828
     33 H12         6.5394    2.5344   -1.4591 H         1 <0>         0.0824
     34 H13         8.7483    1.8550   -0.5604 H         1 <0>         0.1374
     35 H14         9.0147    0.8294   -1.9905 H         1 <0>         0.1361
     36 H15         9.4413    1.8224   -4.1197 H         1 <0>         0.1306
     37 H16         7.8007    2.5014   -4.0025 H         1 <0>         0.1321
     38 H17         9.1738    3.7649   -5.6366 H         1 <0>         0.1140
     39 H18         8.7297    4.7881   -4.2486 H         1 <0>         0.0890
     40 H19        11.3880    3.3383   -4.6452 H         1 <0>         0.0823
     41 H20        11.1149    5.0935   -4.7796 H         1 <0>         0.0958
     42 H21        12.0567    4.4497   -2.5510 H         1 <0>         0.1139
     43 H22        10.4457    5.1958   -2.4118 H         1 <0>         0.0888
     44 H23        10.6147    3.1699   -0.9905 H         1 <0>         0.1311
     45 H24        11.0257    2.1988   -2.4239 H         1 <0>         0.1297
     46 H25         8.5441    3.7243   -2.0746 H         1 <0>         0.4246
@<TRIPOS>BOND
     1    1    2 1
     2    1   22 1
     3    1   23 1
     4    1   24 1
     5    2    3 1
     6    2   25 1
     7    3    4 2
     8    3    5 2
     9    3    6 1
    10    6   11 ar
    11    6    7 ar
    12    7    8 ar
    13    7   26 1
    14    8    9 ar
    15    8   27 1
    16    9   10 ar
    17    9   13 1
    18   10   11 ar
    19   10   12 1
    20   11   28 1
    21   12   29 1
    22   12   30 1
    23   13   14 1
    24   13   31 1
    25   14   15 1
    26   14   32 1
    27   14   33 1
    28   15   16 1
    29   15   34 1
    30   15   35 1
    31   16   21 1
    32   16   17 1
    33   16   46 1
    34   17   18 1
    35   17   36 1
    36   17   37 1
    37   18   19 1
    38   18   38 1
    39   18   39 1
    40   19   20 1
    41   19   40 1
    42   19   41 1
    43   20   21 1
    44   20   42 1
    45   20   43 1
    46   21   44 1
    47   21   45 1
@<TRIPOS>MOLECULE
ZINC62072390
   46    47     0     0     0
SMALL
USER_CHARGES

@<TRIPOS>ATOM
      1 C1         -0.2459    1.4628   -0.4945 C.3       1 <0>        -0.1519
      2 C2         -0.3331   -0.0644   -0.4625 C.3       1 <0>        -0.1250
      3 H1          0.2212   -0.4776   -1.3052 H         1 <0>         0.1059
      4 C3         -1.7987   -0.4936   -0.5564 C.3       1 <0>         0.1116
      5 N1         -2.3397   -0.1017   -1.8602 N.pl3     1 <0>        -1.1235
      6 S1         -3.7472   -0.7792   -2.4101 S.o2      1 <0>         2.6920
      7 O1         -4.0377   -0.1581   -3.6547 O.2       1 <0>        -0.9482
      8 O2         -3.5997   -2.1863   -2.2770 O.2       1 <0>        -0.9541
      9 C4         -5.0261   -0.2993   -1.2971 C.ar      1 <0>        -0.7547
     10 C5         -5.6889   -1.2551   -0.5521 C.ar      1 <0>         0.0141
     11 C6         -6.6929   -0.8794    0.3211 C.ar      1 <0>        -0.1884
     12 C7         -7.0367    0.4538    0.4522 C.ar      1 <0>        -0.0155
     13 C8         -6.3778    1.4144   -0.2892 C.ar      1 <0>        -0.1953
     14 C9         -5.3649    1.0410   -1.1637 C.ar      1 <0>         0.3139
     15 N2         -4.6928    2.0106   -1.9113 N.pl3     1 <0>        -0.5894
     16 N3         -4.9613    3.3349   -1.7111 N.3       1 <0>        -0.6018
     17 C10         0.2672   -0.5822    0.8460 C.3       1 <0>        -0.0008
     18 N4          0.3049   -2.0505    0.8202 N.4       1 <0>        -0.4000
     19 C11         1.2981   -2.5199   -0.1794 C.3       1 <0>        -0.0102
     20 C12         1.6260   -3.9580    0.2948 C.3       1 <0>        -0.1463
     21 C13         1.6150   -3.8251    1.8350 C.3       1 <0>        -0.1452
     22 C14         0.7682   -2.5718    2.1245 C.3       1 <0>        -0.0092
     23 H2          0.7876    1.7711   -0.3365 H         1 <0>         0.0749
     24 H3         -0.5895    1.8262   -1.4630 H         1 <0>         0.0752
     25 H4         -0.8737    1.8791    0.2934 H         1 <0>         0.0716
     26 H5         -1.8682   -1.5756   -0.4445 H         1 <0>         0.0717
     27 H6         -2.3706   -0.0090    0.2349 H         1 <0>         0.0847
     28 H7         -1.8736    0.5547   -2.4013 H         1 <0>         0.4207
     29 H8         -5.4229   -2.2970   -0.6521 H         1 <0>         0.1420
     30 H9         -7.2101   -1.6288    0.9019 H         1 <0>         0.1331
     31 H10        -7.8217    0.7438    1.1349 H         1 <0>         0.1350
     32 H11        -6.6471    2.4553   -0.1866 H         1 <0>         0.1403
     33 H12        -4.0353    1.7436   -2.5726 H         1 <0>         0.4010
     34 H13        -4.8245    3.5895   -0.7444 H         1 <0>         0.3421
     35 H14        -4.4021    3.9133   -2.3200 H         1 <0>         0.3674
     36 H15         1.2796   -0.1948    0.9597 H         1 <0>         0.1381
     37 H16        -0.3455   -0.2492    1.6837 H         1 <0>         0.1349
     38 H17         0.8616   -2.5343   -1.1781 H         1 <0>         0.1356
     39 H18         2.1908   -1.8947   -0.1576 H         1 <0>         0.1356
     40 H19         0.8593   -4.6579   -0.0374 H         1 <0>         0.0998
     41 H20         2.6100   -4.2658   -0.0587 H         1 <0>         0.1177
     42 H21         1.1563   -4.7043    2.2873 H         1 <0>         0.1061
     43 H22         2.6295   -3.6912    2.2104 H         1 <0>         0.1043
     44 H23         1.3763   -1.8213    2.6295 H         1 <0>         0.1318
     45 H24        -0.0886   -2.8375    2.7437 H         1 <0>         0.1331
     46 H25        -0.6092   -2.4187    0.6032 H         1 <0>         0.4253
@<TRIPOS>BOND
     1    1    2 1
     2    1   23 1
     3    1   24 1
     4    1   25 1
     5    2    3 1
     6    2    4 1
     7    2   17 1
     8    4    5 1
     9    4   26 1
    10    4   27 1
    11    5    6 1
    12    5   28 1
    13    6    7 2
    14    6    8 2
    15    6    9 1
    16    9   14 ar
    17    9   10 ar
    18   10   11 ar
    19   10   29 1
    20   11   12 ar
    21   11   30 1
    22   12   13 ar
    23   12   31 1
    24   13   14 ar
    25   13   32 1
    26   14   15 1
    27   15   16 1
    28   15   33 1
    29   16   34 1
    30   16   35 1
    31   17   18 1
    32   17   36 1
    33   17   37 1
    34   18   22 1
    35   18   19 1
    36   18   46 1
    37   19   20 1
    38   19   38 1
    39   19   39 1
    40   20   21 1
    41   20   40 1
    42   20   41 1
    43   21   22 1
    44   21   42 1
    45   21   43 1
    46   22   44 1
    47   22   45 1
@<TRIPOS>MOLECULE
ZINC00392087
   50    52     0     0     0
SMALL
USER_CHARGES
3-[1-(hydroxymethyl)propylamino-methyl-BLAHyl]propane-1,2-diol
@<TRIPOS>ATOM
      1 C1         -0.9389   -0.0506   -0.5574 C.3       1 <0>        -0.1636
      2 C2         -0.2137   -1.3748   -0.3090 C.3       1 <0>        -0.1153
      3 C3          0.7942   -1.6229   -1.4329 C.3       1 <0>         0.0902
      4 H1          0.2834   -1.5810   -2.3949 H         1 <0>         0.1089
      5 C4          1.4296   -3.0030   -1.2527 C.3       1 <0>         0.0398
      6 O1          1.9990   -3.0982    0.0546 O.3       1 <0>        -0.5645
      7 N1          1.8404   -0.5927   -1.3888 N.pl3     1 <0>        -0.6160
      8 C5          2.4203   -0.4225   -2.6308 C.ar      1 <0>         0.3760
      9 C6          1.7365    0.2438   -3.6713 C.ar      1 <0>        -0.1340
     10 C7          0.4434    0.7546   -3.4773 C.ar      1 <0>        -0.0390
     11 C8         -0.1898    1.3918   -4.5004 C.ar      1 <0>        -0.1300
     12 C9          0.4302    1.5435   -5.7395 C.ar      1 <0>        -0.0099
     13 C10         1.6823    1.0610   -5.9624 C.ar      1 <0>        -0.1667
     14 C11         2.3707    0.3960   -4.9299 C.ar      1 <0>         0.2219
     15 C12         4.2713   -0.7140   -4.1832 C.ar      1 <0>         0.4136
     16 C13         3.7084   -0.8993   -2.9000 C.ar      1 <0>        -0.2766
     17 C14         4.7070   -1.6130   -2.1097 C.2       1 <0>         0.1656
     18 N2          5.7447   -1.8106   -2.8698 N.2       1 <0>        -0.2216
     19 N3          5.5167   -1.2858   -4.1451 N.pl3     1 <0>        -0.3727
     20 C15         6.4658   -1.3255   -5.2603 C.3       1 <0>         0.0893
     21 C16         7.3592   -0.0843   -5.2143 C.3       1 <0>         0.0847
     22 H2          7.8387   -0.0178   -4.2377 H         1 <0>         0.1266
     23 C17         8.4300   -0.1860   -6.3023 C.3       1 <0>         0.0492
     24 O2          9.3341    0.9145   -6.1852 O.3       1 <0>        -0.5591
     25 O3          6.5648    1.0828   -5.4354 O.3       1 <0>        -0.5423
     26 C18         4.5624   -2.0433   -0.6727 C.3       1 <0>        -0.0966
     27 H3         -0.2131    0.7623   -0.5806 H         1 <0>         0.0659
     28 H4         -1.4631   -0.0970   -1.5119 H         1 <0>         0.0551
     29 H5         -1.6569    0.1262    0.2433 H         1 <0>         0.0687
     30 H6          0.3106   -1.3284    0.6455 H         1 <0>         0.0873
     31 H7         -0.9395   -2.1877   -0.2857 H         1 <0>         0.0847
     32 H8          0.6673   -3.7726   -1.3738 H         1 <0>         0.0782
     33 H9          2.2103   -3.1441   -2.0001 H         1 <0>         0.0484
     34 H10         2.4204   -3.9488    0.2391 H         1 <0>         0.3943
     35 H11         2.5361   -0.8134   -0.6921 H         1 <0>         0.3911
     36 H12        -0.0468    0.6425   -2.5215 H         1 <0>         0.1660
     37 H13        -1.1845    1.7847   -4.3500 H         1 <0>         0.1529
     38 H14        -0.0921    2.0530   -6.5358 H         1 <0>         0.1550
     39 H15         2.1471    1.1874   -6.9290 H         1 <0>         0.1544
     40 H16         7.0829   -2.2205   -5.1805 H         1 <0>         0.1354
     41 H17         5.9185   -1.3445   -6.2027 H         1 <0>         0.1060
     42 H18         8.9785   -1.1207   -6.1861 H         1 <0>         0.0664
     43 H19         7.9548   -0.1630   -7.2830 H         1 <0>         0.0560
     44 H20        10.0411    0.9146   -6.8449 H         1 <0>         0.3925
     45 H21         6.1075    1.0918   -6.2874 H         1 <0>         0.3673
     46 H22         4.0282   -2.9925   -0.6297 H         1 <0>         0.1072
     47 H23         5.5503   -2.1619   -0.2277 H         1 <0>         0.1049
     48 H24         4.0039   -1.2869   -0.1214 H         1 <0>         0.0935
     49 N4          3.6350   -0.0749   -5.2066 N.ar      1 <0>        -0.5459
     50 H25         4.0721    0.0477   -6.1275 H         1 <0>         0.4570
@<TRIPOS>BOND
     1    1    2 1
     2    1   27 1
     3    1   28 1
     4    1   29 1
     5    2    3 1
     6    2   30 1
     7    2   31 1
     8    3    4 1
     9    3    5 1
    10    3    7 1
    11    5    6 1
    12    5   32 1
    13    5   33 1
    14    6   34 1
    15    7    8 1
    16    7   35 1
    17    8   16 ar
    18    8    9 ar
    19    9   14 ar
    20    9   10 ar
    21   10   11 ar
    22   10   36 1
    23   11   12 ar
    24   11   37 1
    25   12   13 ar
    26   12   38 1
    27   13   14 ar
    28   13   39 1
    29   14   49 ar
    30   15   19 1
    31   15   16 ar
    32   15   49 ar
    33   16   17 1
    34   17   18 2
    35   17   26 1
    36   18   19 1
    37   19   20 1
    38   20   21 1
    39   20   40 1
    40   20   41 1
    41   21   22 1
    42   21   23 1
    43   21   25 1
    44   23   24 1
    45   23   42 1
    46   23   43 1
    47   24   44 1
    48   25   45 1
    49   26   46 1
    50   26   47 1
    51   26   48 1
    52   49   50 1
@<TRIPOS>MOLECULE
ZINC35877606
   55    58     0     0     0
SMALL
USER_CHARGES

@<TRIPOS>ATOM
      1 C1          0.0725    1.5703    0.0715 C.3       1 <0>        -0.1226
      2 C2          0.0741    0.0636    0.0416 C.ar      1 <0>        -0.0866
      3 C3          0.0789   -0.6057   -1.1687 C.ar      1 <0>        -0.0478
      4 C4          0.0811   -1.9846   -1.2024 C.ar      1 <0>        -0.1181
      5 C5          0.0777   -2.7143   -0.0157 C.ar      1 <0>         0.1634
      6 C6          0.0714   -2.0302    1.1954 C.ar      1 <0>        -0.2011
      7 C7          0.0765   -0.6536    1.2249 C.ar      1 <0>        -0.0465
      8 C8          0.0655   -3.0859    2.2679 C.3       1 <0>         0.0931
      9 C9          1.2988   -2.9621    3.1702 C.3       1 <0>        -0.1045
     10 H1          1.9051   -2.1078    2.8688 H         1 <0>         0.1452
     11 C10         0.7293   -2.7433    4.5927 C.3       1 <0>        -0.1265
     12 C11        -0.6965   -2.2019    4.3162 C.3       1 <0>         0.0419
     13 H2         -0.6665   -1.1346    4.0970 H         1 <0>         0.1608
     14 N1         -1.1294   -2.9709    3.1194 N.4       1 <0>        -0.4926
     15 C12        -1.6194   -2.4812    5.5041 C.3       1 <0>         0.0876
     16 H3         -1.2880   -1.9016    6.3657 H         1 <0>         0.1104
     17 C13        -3.0516   -2.0831    5.1419 C.3       1 <0>        -0.2083
     18 O1         -1.5781   -3.8737    5.8223 O.3       1 <0>        -0.5664
     19 C14         2.1154   -4.2276    3.1188 C.2       1 <0>         0.5067
     20 O2          1.9550   -5.0875    3.9591 O.2       1 <0>        -0.4737
     21 N2          3.0240   -4.4040    2.1390 N.am      1 <0>        -0.6492
     22 C15         3.7225   -5.6147    2.0410 C.ar      1 <0>         0.1192
     23 C16         3.9058   -6.4048    3.1664 C.ar      1 <0>        -0.0850
     24 C17         4.5952   -7.5995    3.0670 C.ar      1 <0>        -0.0511
     25 C18         5.1035   -8.0089    1.8468 C.ar      1 <0>        -0.0767
     26 C19         4.9246   -7.2258    0.7217 C.ar      1 <0>        -0.1752
     27 C20         4.2297   -6.0307    0.8122 C.ar      1 <0>         0.1087
     28 O3          4.0479   -5.2625   -0.2952 O.3       1 <0>        -0.3215
     29 C21         4.5954   -5.7518   -1.5211 C.3       1 <0>         0.0252
     30 Cl1         4.8239   -8.5875    4.4760 Cl        1 <0>        -0.0531
     31 C22         0.0736   -4.3941    1.5201 C.2       1 <0>         0.5128
     32 O4          0.0747   -5.5052    2.0066 O.2       1 <0>        -0.4204
     33 N3          0.0794   -4.0925    0.2082 N.am      1 <0>        -0.6417
     34 H4          1.0997    1.9347    0.0773 H         1 <0>         0.0825
     35 H5         -0.4430    1.9507   -0.8104 H         1 <0>         0.0783
     36 H6         -0.4405    1.9153    0.9692 H         1 <0>         0.0734
     37 H7          0.0806   -0.0457   -2.0922 H         1 <0>         0.1483
     38 H8          0.0852   -2.5000   -2.1515 H         1 <0>         0.1441
     39 H9          0.0779   -0.1337    2.1715 H         1 <0>         0.1381
     40 H10         0.6848   -3.6852    5.1394 H         1 <0>         0.1388
     41 H11         1.3222   -2.0080    5.1366 H         1 <0>         0.1309
     42 H12        -1.8589   -2.4737    2.6308 H         1 <0>         0.4344
     43 H13        -3.7090   -2.2820    5.9882 H         1 <0>         0.0903
     44 H14        -3.0831   -1.0209    4.8992 H         1 <0>         0.0852
     45 H15        -3.3829   -2.6626    4.2803 H         1 <0>         0.0590
     46 H16        -2.1409   -4.1236    6.5678 H         1 <0>         0.4090
     47 H17         3.1943   -3.6928    1.5017 H         1 <0>         0.4166
     48 H18         3.5105   -6.0869    4.1199 H         1 <0>         0.1697
     49 H19         5.6416   -8.9424    1.7733 H         1 <0>         0.1428
     50 H20         5.3228   -7.5479   -0.2291 H         1 <0>         0.1458
     51 H21         5.6745   -5.8654   -1.4174 H         1 <0>         0.0627
     52 H22         4.1495   -6.7178   -1.7583 H         1 <0>         0.0605
     53 H23         4.3798   -5.0455   -2.3228 H         1 <0>         0.1050
     54 H24         0.0837   -4.7557   -0.4996 H         1 <0>         0.4349
     55 H25        -1.4525   -3.8871    3.3920 H         1 <0>         0.4429
@<TRIPOS>BOND
     1    1    2 1
     2    1   34 1
     3    1   35 1
     4    1   36 1
     5    2    7 ar
     6    2    3 ar
     7    3    4 ar
     8    3   37 1
     9    4    5 ar
    10    4   38 1
    11    5   33 1
    12    5    6 ar
    13    6    7 ar
    14    6    8 1
    15    7   39 1
    16    8   14 1
    17    8    9 1
    18    8   31 1
    19    9   10 1
    20    9   11 1
    21    9   19 1
    22   11   12 1
    23   11   40 1
    24   11   41 1
    25   12   13 1
    26   12   14 1
    27   12   15 1
    28   14   42 1
    29   14   55 1
    30   15   16 1
    31   15   17 1
    32   15   18 1
    33   17   43 1
    34   17   44 1
    35   17   45 1
    36   18   46 1
    37   19   20 2
    38   19   21 am
    39   21   22 1
    40   21   47 1
    41   22   27 ar
    42   22   23 ar
    43   23   24 ar
    44   23   48 1
    45   24   25 ar
    46   24   30 1
    47   25   26 ar
    48   25   49 1
    49   26   27 ar
    50   26   50 1
    51   27   28 1
    52   28   29 1
    53   29   51 1
    54   29   52 1
    55   29   53 1
    56   31   32 2
    57   31   33 am
    58   33   54 1
@<TRIPOS>MOLECULE
ZINC40779287
   44    47     0     0     0
SMALL
USER_CHARGES

@<TRIPOS>ATOM
      1 C1         -2.3688    0.9379    0.3832 C.3       1 <0>        -0.1543
      2 C2         -1.7218   -0.4189    0.2757 C.ar      1 <0>         0.2459
      3 C3         -1.7760   -1.1017   -0.9366 C.ar      1 <0>        -0.1829
      4 C4         -1.1941   -2.3332   -1.0521 C.ar      1 <0>         0.0492
      5 C5         -0.5525   -2.8722    0.0757 C.ar      1 <0>        -0.1247
      6 C6         -0.5334   -2.1253    1.2794 C.ar      1 <0>         0.1604
      7 N1         -1.1178   -0.9231    1.3247 N.ar      1 <0>        -0.4649
      8 C7          0.1073   -2.6611    2.4091 C.ar      1 <0>        -0.1783
      9 C8          0.7013   -3.8849    2.3405 C.ar      1 <0>         0.0012
     10 C9          0.6884   -4.6265    1.1642 C.ar      1 <0>        -0.1310
     11 C10         0.0703   -4.1373    0.0315 C.ar      1 <0>         0.2409
     12 N2          0.0606   -4.8853   -1.1431 N.pl3     1 <0>        -0.6420
     13 C11         0.1866   -6.2688   -1.0874 C.ar      1 <0>         0.3565
     14 C12         0.3032   -7.0182   -2.2601 C.ar      1 <0>         0.0396
     15 C13         0.4271   -8.4040   -2.1470 C.ar      1 <0>         0.3947
     16 N3          0.4293   -8.9543   -0.9351 N.ar      1 <0>        -0.4799
     17 C14         0.3168   -8.2105    0.1466 C.ar      1 <0>         0.3166
     18 N4          0.2034   -6.8992    0.0846 N.ar      1 <0>        -0.5535
     19 N5          0.5459   -9.1977   -3.2833 N.pl3     1 <0>        -0.6339
     20 C15         0.5630  -10.5839   -3.1649 C.ar      1 <0>         0.3616
     21 C16         0.5758  -11.3734   -4.3104 C.ar      1 <0>        -0.2115
     22 C17         0.5933  -12.7501   -4.1782 C.ar      1 <0>        -0.0441
     23 C18         0.5973  -13.2931   -2.9000 C.ar      1 <0>        -0.2032
     24 C19         0.5839  -12.4499   -1.8071 C.ar      1 <0>         0.1339
     25 N6          0.5724  -11.1397   -1.9633 N.ar      1 <0>        -0.4673
     26 N7          0.2957   -6.3952   -3.5176 N.pl3     1 <0>        -0.8721
     27 H1         -1.6451    1.7077    0.1154 H         1 <0>         0.1228
     28 H2         -3.2209    0.9887   -0.2946 H         1 <0>         0.1215
     29 H3         -2.7083    1.0984    1.4064 H         1 <0>         0.1018
     30 H4         -2.2776   -0.6590   -1.7844 H         1 <0>         0.1836
     31 H5         -1.2269   -2.8770   -1.9846 H         1 <0>         0.1639
     32 H6          0.1291   -2.1020    3.3329 H         1 <0>         0.1539
     33 H7          1.1914   -4.2864    3.2151 H         1 <0>         0.1576
     34 H8          1.1670   -5.5943    1.1367 H         1 <0>         0.1782
     35 H9         -0.0340   -4.4411   -2.0003 H         1 <0>         0.4173
     36 H10         0.3220   -8.6902    1.1143 H         1 <0>         0.2060
     37 H11         0.6168   -8.7847   -4.1581 H         1 <0>         0.4229
     38 H12         0.5719  -10.9176   -5.2894 H         1 <0>         0.1328
     39 H13         0.6032  -13.3883   -5.0493 H         1 <0>         0.1392
     40 H14         0.6104  -14.3643   -2.7624 H         1 <0>         0.1376
     41 H15         0.5869  -12.8680   -0.8113 H         1 <0>         0.1611
     42 H16         0.2086   -5.4312   -3.5808 H         1 <0>         0.3951
     43 H17         0.3775   -6.9286   -4.3236 H         1 <0>         0.4024
     44 H18        -1.0974   -0.4155    2.1511 H         1 <0>         0.4456
@<TRIPOS>BOND
     1    1    2 1
     2    1   27 1
     3    1   28 1
     4    1   29 1
     5    2    7 ar
     6    2    3 ar
     7    3    4 ar
     8    3   30 1
     9    4    5 ar
    10    4   31 1
    11    5   11 ar
    12    5    6 ar
    13    6    7 ar
    14    6    8 ar
    15    7   44 1
    16    8    9 ar
    17    8   32 1
    18    9   10 ar
    19    9   33 1
    20   10   11 ar
    21   10   34 1
    22   11   12 1
    23   12   13 1
    24   12   35 1
    25   13   18 ar
    26   13   14 ar
    27   14   15 ar
    28   14   26 1
    29   15   16 ar
    30   15   19 1
    31   16   17 ar
    32   17   18 ar
    33   17   36 1
    34   19   20 1
    35   19   37 1
    36   20   25 ar
    37   20   21 ar
    38   21   22 ar
    39   21   38 1
    40   22   23 ar
    41   22   39 1
    42   23   24 ar
    43   23   40 1
    44   24   25 ar
    45   24   41 1
    46   26   42 1
    47   26   43 1
@<TRIPOS>MOLECULE
ZINC20292067
   49    51     0     0     0
SMALL
USER_CHARGES

@<TRIPOS>ATOM
      1 C1         -2.7351    1.5864   -2.1161 C.3       1 <0>         0.0246
      2 O1         -2.8236    0.1643   -2.2246 O.3       1 <0>        -0.3139
      3 C2         -2.6192   -0.5550   -1.0898 C.ar      1 <0>         0.1427
      4 C3         -2.3448    0.0960    0.1050 C.ar      1 <0>        -0.1826
      5 C4         -2.1368   -0.6341    1.2595 C.ar      1 <0>        -0.0640
      6 C5         -2.2013   -2.0139    1.2284 C.ar      1 <0>        -0.1165
      7 C6         -2.4751   -2.6704    0.0357 C.ar      1 <0>         0.1505
      8 C7         -2.6903   -1.9386   -1.1236 C.ar      1 <0>        -0.1177
      9 N1         -2.5395   -4.0696    0.0040 N.am      1 <0>        -0.4666
     10 C8         -3.7368   -4.6772    0.1345 C.2       1 <0>         0.5726
     11 O2         -4.7550   -4.0269    0.2785 O.2       1 <0>        -0.4672
     12 C9         -3.7782   -6.1499    0.0974 C.2       1 <0>        -0.4021
     13 C10        -4.9683   -6.8415    0.2241 C.2       1 <0>         0.3418
     14 N2         -4.9595   -8.1864    0.3198 N.pl3     1 <0>        -0.6954
     15 C11        -6.2224   -8.9290    0.3197 C.3       1 <0>         0.1094
     16 H1         -6.9363   -8.4316   -0.3367 H         1 <0>         0.1218
     17 C12        -6.7853   -8.9780    1.7416 C.3       1 <0>        -0.1358
     18 C13        -8.1041   -9.7536    1.7415 C.3       1 <0>        -0.1287
     19 C14        -7.8580  -11.1783    1.2410 C.3       1 <0>        -0.1226
     20 C15        -7.2951  -11.1293   -0.1808 C.3       1 <0>        -0.1382
     21 C16        -5.9762  -10.3537   -0.1807 C.3       1 <0>         0.0209
     22 H2         -5.2623  -10.8512    0.4757 H         1 <0>         0.1529
     23 N3         -5.4357  -10.3067   -1.5459 N.4       1 <0>        -0.6394
     24 C17        -2.4950   -6.8530   -0.0812 C.2       1 <0>         0.5818
     25 O3         -2.4488   -8.0682   -0.1222 O.2       1 <0>        -0.5304
     26 N4         -1.3734   -6.1128   -0.1985 N.am      1 <0>        -0.6134
     27 C18        -1.4108   -4.7735   -0.1607 C.2       1 <0>         0.5186
     28 S1          0.0623   -3.9165   -0.3244 S.2       1 <0>        -0.4549
     29 H3         -2.9184    2.0373   -3.0914 H         1 <0>         0.1051
     30 H4         -3.4798    1.9436   -1.4049 H         1 <0>         0.0593
     31 H5         -1.7394    1.8631   -1.7693 H         1 <0>         0.0608
     32 H6         -2.2934    1.1744    0.1323 H         1 <0>         0.1389
     33 H7         -1.9231   -0.1253    2.1878 H         1 <0>         0.1396
     34 H8         -2.0384   -2.5823    2.1321 H         1 <0>         0.1273
     35 H9         -2.9082   -2.4466   -2.0515 H         1 <0>         0.1320
     36 H10        -5.9051   -6.3046    0.2465 H         1 <0>         0.1862
     37 H11        -4.1171   -8.6623    0.3887 H         1 <0>         0.4234
     38 H12        -6.0713   -9.4754    2.3980 H         1 <0>         0.0859
     39 H13        -6.9606   -7.9630    2.0981 H         1 <0>         0.0945
     40 H14        -8.5052   -9.7885    2.7544 H         1 <0>         0.0897
     41 H15        -8.8181   -9.2562    1.0850 H         1 <0>         0.0770
     42 H16        -7.1440  -11.6757    1.8975 H         1 <0>         0.0792
     43 H17        -8.7976  -11.7308    1.2410 H         1 <0>         0.0934
     44 H18        -7.1197  -12.1443   -0.5373 H         1 <0>         0.1003
     45 H19        -8.0090  -10.6319   -0.8373 H         1 <0>         0.0949
     46 H20        -4.5660   -9.7952   -1.5458 H         1 <0>         0.4370
     47 H21        -5.2734  -11.2463   -1.8759 H         1 <0>         0.4429
     48 H22        -0.5207   -6.5600   -0.3163 H         1 <0>         0.4488
     49 H23        -6.0966   -9.8462   -2.1536 H         1 <0>         0.4354
@<TRIPOS>BOND
     1    1    2 1
     2    1   29 1
     3    1   30 1
     4    1   31 1
     5    2    3 1
     6    3    8 ar
     7    3    4 ar
     8    4    5 ar
     9    4   32 1
    10    5    6 ar
    11    5   33 1
    12    6    7 ar
    13    6   34 1
    14    7    8 ar
    15    7    9 1
    16    8   35 1
    17    9   27 1
    18    9   10 am
    19   10   11 2
    20   10   12 1
    21   12   13 2
    22   12   24 1
    23   13   14 1
    24   13   36 1
    25   14   15 1
    26   14   37 1
    27   15   16 1
    28   15   21 1
    29   15   17 1
    30   17   18 1
    31   17   38 1
    32   17   39 1
    33   18   19 1
    34   18   40 1
    35   18   41 1
    36   19   20 1
    37   19   42 1
    38   19   43 1
    39   20   21 1
    40   20   44 1
    41   20   45 1
    42   21   22 1
    43   21   23 1
    44   23   46 1
    45   23   47 1
    46   23   49 1
    47   24   25 2
    48   24   26 am
    49   26   27 1
    50   26   48 1
    51   27   28 2
@<TRIPOS>MOLECULE
ZINC43284786
   40    41     0     0     0
SMALL
USER_CHARGES

@<TRIPOS>ATOM
      1 C1          0.9518   -0.7194   -1.2023 C.3       1 <0>        -0.1827
      2 C2          0.1951   -0.0178   -0.0726 C.3       1 <0>         0.0293
      3 H1         -0.8666   -0.2532   -0.1455 H         1 <0>         0.1532
      4 C3          0.7326   -0.4987    1.2768 C.3       1 <0>         0.1585
      5 H2          0.1348   -0.0684    2.0802 H         1 <0>         0.0886
      6 C4          2.1673   -0.0637    1.4299 C.2       1 <0>        -0.2167
      7 C5          2.6718    0.9842    2.1263 C.2       1 <0>        -0.1178
      8 C6          4.0385    1.1941    2.1253 C.2       1 <0>        -0.1447
      9 C7          4.8332    0.3454    1.4277 C.2       1 <0>        -0.1246
     10 S1          3.6440   -0.7993    0.7476 S.3       1 <0>         0.1639
     11 Br1         4.7877    2.6431    3.0818 Br        1 <0>        -0.0140
     12 N1          0.6559   -1.9643    1.3403 N.3       1 <0>        -0.5220
     13 C8         -0.7282   -2.4265    1.1753 C.3       1 <0>         0.0456
     14 C9         -0.7516   -3.9549    1.1009 C.3       1 <0>        -0.0980
     15 C10        -0.1504   -4.5328    2.3851 C.3       1 <0>        -0.1118
     16 C11         1.2737   -3.9978    2.5584 C.3       1 <0>        -0.1086
     17 C12         1.2385   -2.4681    2.5905 C.3       1 <0>         0.0556
     18 C13        -0.1157   -6.0365    2.2926 C.2       1 <0>         0.5200
     19 O1         -0.5307   -6.5926    1.2979 O.2       1 <0>        -0.5370
     20 N2          0.3764   -6.7634    3.3153 N.am      1 <0>        -0.8543
     21 N3          0.3836    1.4347   -0.1853 N.4       1 <0>        -0.6350
     22 H3          0.8120   -1.7972   -1.1187 H         1 <0>         0.1217
     23 H4          0.5689   -0.3768   -2.1636 H         1 <0>         0.0838
     24 H5          2.0136   -0.4840   -1.1294 H         1 <0>         0.0827
     25 H6          2.0161    1.6454    2.6733 H         1 <0>         0.1454
     26 H7          5.9074    0.3563    1.3164 H         1 <0>         0.2033
     27 H8         -1.3254   -2.0950    2.0247 H         1 <0>         0.0490
     28 H9         -1.1424   -2.0118    0.2563 H         1 <0>         0.0837
     29 H10        -1.7805   -4.2983    0.9941 H         1 <0>         0.0843
     30 H11        -0.1658   -4.2865    0.2436 H         1 <0>         0.0860
     31 H12        -0.7584   -4.2333    3.2388 H         1 <0>         0.0980
     32 H13         1.6918   -4.3718    3.4930 H         1 <0>         0.0806
     33 H14         1.8914   -4.3301    1.7240 H         1 <0>         0.0837
     34 H15         2.2526   -2.0837    2.6995 H         1 <0>         0.0872
     35 H16         0.6320   -2.1365    3.4333 H         1 <0>         0.0479
     36 H17         0.7083   -6.3186    4.1109 H         1 <0>         0.4015
     37 H18         0.3988   -7.7313    3.2558 H         1 <0>         0.4061
     38 H19        -0.0552    1.7661   -1.0313 H         1 <0>         0.4411
     39 H20        -0.0348    1.8909    0.6116 H         1 <0>         0.4342
     40 H21         1.3701    1.6447   -0.2135 H         1 <0>         0.4322
@<TRIPOS>BOND
     1    1    2 1
     2    1   22 1
     3    1   23 1
     4    1   24 1
     5    2    3 1
     6    2    4 1
     7    2   21 1
     8    4    5 1
     9    4    6 1
    10    4   12 1
    11    6   10 1
    12    6    7 2
    13    7    8 1
    14    7   25 1
    15    8    9 2
    16    8   11 1
    17    9   10 1
    18    9   26 1
    19   12   17 1
    20   12   13 1
    21   13   14 1
    22   13   27 1
    23   13   28 1
    24   14   15 1
    25   14   29 1
    26   14   30 1
    27   15   16 1
    28   15   18 1
    29   15   31 1
    30   16   17 1
    31   16   32 1
    32   16   33 1
    33   17   34 1
    34   17   35 1
    35   18   19 2
    36   18   20 am
    37   20   36 1
    38   20   37 1
    39   21   38 1
    40   21   39 1
    41   21   40 1
@<TRIPOS>MOLECULE
ZINC00137166
   43    45     0     0     0
SMALL
USER_CHARGES
3-(5-bicyclo[2.2.1]hept-2-enylthiocarbamoylamino)-1-(2-methoxyphenyl)-thiourea
@<TRIPOS>ATOM
      1 C1         -7.6550   -0.8056   -5.5178 C.3       1 <0>         0.0273
      2 O1         -6.3414   -1.2412   -5.1618 O.3       1 <0>        -0.3215
      3 C2         -5.7124   -2.0787   -6.0290 C.ar      1 <0>         0.1326
      4 C3         -6.3435   -2.4683   -7.1992 C.ar      1 <0>        -0.2058
      5 C4         -5.7048   -3.3241   -8.0775 C.ar      1 <0>        -0.0637
      6 C5         -4.4339   -3.7893   -7.7942 C.ar      1 <0>        -0.1484
      7 C6         -3.7955   -3.4012   -6.6315 C.ar      1 <0>        -0.0292
      8 C7         -4.4300   -2.5428   -5.7456 C.ar      1 <0>         0.0782
      9 N1         -3.7850   -2.1483   -4.5660 N.pl3     1 <0>        -0.6098
     10 C8         -2.5069   -1.7226   -4.6068 C.2       1 <0>         0.5575
     11 S1         -1.6360   -1.7686   -6.0800 S.2       1 <0>        -0.5526
     12 N2         -1.9143   -1.2608   -3.4878 N.pl3     1 <0>        -0.4969
     13 N3         -2.6270   -1.2232   -2.2822 N.pl3     1 <0>        -0.5037
     14 C9         -2.0344   -0.7614   -1.1632 C.2       1 <0>         0.5608
     15 S2         -2.9053   -0.7155    0.3100 S.2       1 <0>        -0.5671
     16 N4         -0.7563   -0.3357   -1.2041 N.pl3     1 <0>        -0.6643
     17 C10        -0.1122    0.1663    0.0122 C.3       1 <0>         0.1403
     18 H1         -0.4457   -0.3992    0.8824 H         1 <0>         0.1268
     19 C11        -0.4037    1.6754    0.1994 C.3       1 <0>        -0.1214
     20 C12         1.0119    2.3338    0.1523 C.3       1 <0>        -0.0822
     21 H2          1.0853    3.3491    0.5419 H         1 <0>         0.1092
     22 C13         1.8613    1.2333    0.8874 C.3       1 <0>        -0.1156
     23 C14         1.4425    0.1044   -0.1242 C.3       1 <0>        -0.0829
     24 H3          1.9011   -0.8742    0.0181 H         1 <0>         0.1113
     25 C15         1.7296    0.8214   -1.4490 C.2       1 <0>        -0.1965
     26 C16         1.4815    2.1060   -1.2898 C.2       1 <0>        -0.1426
     27 H4         -8.3104   -1.6709   -5.6167 H         1 <0>         0.0600
     28 H5         -8.0411   -0.1441   -4.7423 H         1 <0>         0.1033
     29 H6         -7.6154   -0.2695   -6.4661 H         1 <0>         0.0596
     30 H7         -7.3363   -2.1070   -7.4233 H         1 <0>         0.1357
     31 H8         -6.2001   -3.6303   -8.9870 H         1 <0>         0.1311
     32 H9         -3.9391   -4.4580   -8.4830 H         1 <0>         0.1339
     33 H10        -2.8027   -3.7659   -6.4129 H         1 <0>         0.1520
     34 H11        -4.2583   -2.1815   -3.7199 H         1 <0>         0.4051
     35 H12        -0.9944   -0.9545   -3.5172 H         1 <0>         0.4467
     36 H13        -3.5469   -1.5296   -2.2528 H         1 <0>         0.4464
     37 H14        -0.2629   -0.3618   -2.0388 H         1 <0>         0.3942
     38 H15        -1.0272    2.0488   -0.6130 H         1 <0>         0.0718
     39 H16        -0.8791    1.8572    1.1633 H         1 <0>         0.0910
     40 H17         1.5069    1.0393    1.8997 H         1 <0>         0.0846
     41 H18         2.9305    1.4432    0.8595 H         1 <0>         0.0842
     42 H19         2.0763    0.3532   -2.3584 H         1 <0>         0.1302
     43 H20         1.5900    2.8688   -2.0465 H         1 <0>         0.1305
@<TRIPOS>BOND
     1    1    2 1
     2    1   27 1
     3    1   28 1
     4    1   29 1
     5    2    3 1
     6    3    8 ar
     7    3    4 ar
     8    4    5 ar
     9    4   30 1
    10    5    6 ar
    11    5   31 1
    12    6    7 ar
    13    6   32 1
    14    7    8 ar
    15    7   33 1
    16    8    9 1
    17    9   10 1
    18    9   34 1
    19   10   11 2
    20   10   12 1
    21   12   13 1
    22   12   35 1
    23   13   14 1
    24   13   36 1
    25   14   15 2
    26   14   16 1
    27   16   17 1
    28   16   37 1
    29   17   18 1
    30   17   23 1
    31   17   19 1
    32   19   20 1
    33   19   38 1
    34   19   39 1
    35   20   21 1
    36   20   26 1
    37   20   22 1
    38   22   23 1
    39   22   40 1
    40   22   41 1
    41   23   24 1
    42   23   25 1
    43   25   26 2
    44   25   42 1
    45   26   43 1
@<TRIPOS>MOLECULE
ZINC14280006
   55    58     0     0     0
SMALL
USER_CHARGES
(3R)-N-[(1R)-1-(1-adamantyl)ethyl]-3-(2-thienyl)-3-ureido-propanamide
@<TRIPOS>ATOM
      1 C1         -0.1040    1.3448    5.3183 C.3       1 <0>        -0.1657
      2 C2         -1.1521    2.3835    4.9139 C.3       1 <0>         0.1538
      3 H1         -0.6594    3.3312    4.6963 H         1 <0>         0.0875
      4 C3         -2.1469    2.5772    6.0601 C.3       1 <0>        -0.0584
      5 C4         -2.8384    1.2470    6.3655 C.3       1 <0>        -0.1045
      6 C5         -3.8331    1.4408    7.5118 C.3       1 <0>        -0.0856
      7 C6         -3.0882    1.9260    8.7570 C.3       1 <0>        -0.1085
      8 C7         -2.3967    3.2562    8.4515 C.3       1 <0>        -0.0852
      9 C8         -1.4019    3.0625    7.3053 C.3       1 <0>        -0.1016
     10 C9         -3.4448    4.2948    8.0472 C.3       1 <0>        -0.1091
     11 C10        -4.1897    3.8096    6.8020 C.3       1 <0>        -0.0862
     12 C11        -4.8813    2.4794    7.1074 C.3       1 <0>        -0.1089
     13 C12        -3.1950    3.6159    5.6557 C.3       1 <0>        -0.1001
     14 N1         -1.8654    1.9189    3.7216 N.am      1 <0>        -0.7239
     15 C13        -1.3523    2.1494    2.4968 C.2       1 <0>         0.5211
     16 O1         -0.3001    2.7415    2.3817 O.2       1 <0>        -0.5407
     17 C14        -2.0860    1.6715    1.2703 C.3       1 <0>        -0.1638
     18 C15        -1.2947    2.0587    0.0194 C.3       1 <0>         0.2773
     19 H2         -1.1101    3.1330    0.0243 H         1 <0>         0.1151
     20 C16        -2.0858    1.6907   -1.2094 C.2       1 <0>        -0.1854
     21 C17        -2.8507    2.4818   -2.0008 C.2       1 <0>        -0.1486
     22 C18        -3.4898    1.9217   -3.0910 C.2       1 <0>        -0.1687
     23 C19        -3.3413    0.5958   -3.3303 C.2       1 <0>        -0.2265
     24 S1         -2.2650    0.0980   -1.9958 S.3       1 <0>         0.1604
     25 N2         -0.0162    1.3436    0.0094 N.am      1 <0>        -0.7289
     26 C20         0.0021   -0.0041    0.0020 C.2       1 <0>         0.7027
     27 O2         -1.0425   -0.6263    0.0086 O.2       1 <0>        -0.5742
     28 N3          1.1783   -0.6620   -0.0127 N.am      1 <0>        -0.8634
     29 H3          0.6047    1.2068    4.5017 H         1 <0>         0.0578
     30 H4          0.4267    1.6905    6.2054 H         1 <0>         0.0675
     31 H5         -0.5967    0.3972    5.5358 H         1 <0>         0.0593
     32 H6         -3.3691    0.9013    5.4784 H         1 <0>         0.0586
     33 H7         -2.0917    0.5071    6.6536 H         1 <0>         0.0686
     34 H8         -4.3258    0.4931    7.7293 H         1 <0>         0.0699
     35 H9         -2.3415    1.1860    9.0451 H         1 <0>         0.0616
     36 H10        -3.7969    2.0640    9.5736 H         1 <0>         0.0619
     37 H11        -1.8660    3.6019    9.3387 H         1 <0>         0.0706
     38 H12        -0.6552    2.3225    7.5934 H         1 <0>         0.0683
     39 H13        -0.9093    4.0101    7.0877 H         1 <0>         0.0643
     40 H14        -4.1535    4.4329    8.8638 H         1 <0>         0.0617
     41 H15        -2.9521    5.2425    7.8296 H         1 <0>         0.0614
     42 H16        -4.9364    4.5496    6.5139 H         1 <0>         0.0693
     43 H17        -5.4119    2.1337    6.2203 H         1 <0>         0.0609
     44 H18        -5.5899    2.6174    7.9240 H         1 <0>         0.0619
     45 H19        -2.7023    4.5635    5.4381 H         1 <0>         0.0623
     46 H20        -3.7257    3.2702    4.7686 H         1 <0>         0.0619
     47 H21        -2.7069    1.4453    3.8136 H         1 <0>         0.3990
     48 H22        -3.0724    2.1337    1.2338 H         1 <0>         0.1039
     49 H23        -2.1940    0.5876    1.3108 H         1 <0>         0.1221
     50 H24        -2.9569    3.5345   -1.7845 H         1 <0>         0.1276
     51 H25        -4.1014    2.5306   -3.7402 H         1 <0>         0.1236
     52 H26        -3.7646   -0.0040   -4.1225 H         1 <0>         0.1750
     53 H27         0.8172    1.8399    0.0041 H         1 <0>         0.4066
     54 H28         2.0116   -0.1656   -0.0180 H         1 <0>         0.3984
     55 H29         1.1914   -1.6319   -0.0181 H         1 <0>         0.4160
@<TRIPOS>BOND
     1    1    2 1
     2    1   29 1
     3    1   30 1
     4    1   31 1
     5    2    3 1
     6    2    4 1
     7    2   14 1
     8    4    9 1
     9    4   13 1
    10    4    5 1
    11    5    6 1
    12    5   32 1
    13    5   33 1
    14    6   12 1
    15    6    7 1
    16    6   34 1
    17    7    8 1
    18    7   35 1
    19    7   36 1
    20    8    9 1
    21    8   10 1
    22    8   37 1
    23    9   38 1
    24    9   39 1
    25   10   11 1
    26   10   40 1
    27   10   41 1
    28   11   12 1
    29   11   13 1
    30   11   42 1
    31   12   43 1
    32   12   44 1
    33   13   45 1
    34   13   46 1
    35   14   15 am
    36   14   47 1
    37   15   16 2
    38   15   17 1
    39   17   18 1
    40   17   48 1
    41   17   49 1
    42   18   19 1
    43   18   20 1
    44   18   25 1
    45   20   24 1
    46   20   21 2
    47   21   22 1
    48   21   50 1
    49   22   23 2
    50   22   51 1
    51   23   24 1
    52   23   52 1
    53   25   26 am
    54   25   53 1
    55   26   27 2
    56   26   28 am
    57   28   54 1
    58   28   55 1
@<TRIPOS>MOLECULE
ZINC40352324
   56    58     0     0     0
SMALL
USER_CHARGES

@<TRIPOS>ATOM
      1 C1         -0.0173    1.4248    0.0099 C.3       1 <0>         0.0248
      2 O1          0.0021   -0.0041    0.0020 O.3       1 <0>        -0.3052
      3 C2          0.6062   -0.6075   -1.0565 C.ar      1 <0>         0.1570
      4 C3          1.1733    0.1606   -2.0629 C.ar      1 <0>        -0.2358
      5 C4          1.7877   -0.4508   -3.1394 C.ar      1 <0>        -0.0092
      6 C5          1.8408   -1.8298   -3.2185 C.ar      1 <0>        -0.2037
      7 C6          1.2760   -2.6062   -2.2160 C.ar      1 <0>         0.2394
      8 C7          0.6612   -1.9936   -1.1281 C.ar      1 <0>        -0.0154
      9 O2          0.1104   -2.7505   -0.1400 O.3       1 <0>        -0.3030
     10 C8         -1.2604   -3.1228   -0.2956 C.3       1 <0>         0.0354
     11 C9         -1.6996   -3.9645    0.9042 C.3       1 <0>         0.1557
     12 H1         -1.5000   -3.4165    1.8250 H         1 <0>         0.1175
     13 C10        -3.1751   -4.2538    0.8017 C.ar      1 <0>        -0.1225
     14 C11        -3.6180   -5.3319    0.0584 C.ar      1 <0>        -0.1065
     15 C12        -4.9714   -5.5972   -0.0356 C.ar      1 <0>        -0.1140
     16 C13        -5.8818   -4.7848    0.6140 C.ar      1 <0>        -0.0698
     17 C14        -5.4388   -3.7072    1.3580 C.ar      1 <0>        -0.1111
     18 C15        -4.0852   -3.4444    1.4555 C.ar      1 <0>        -0.1022
     19 C16        -7.3573   -5.0735    0.5107 C.3       1 <0>        -0.0485
     20 C17        -8.0691   -3.8732   -0.1165 C.3       1 <0>        -0.1104
     21 C18        -9.5671   -4.1663   -0.2214 C.3       1 <0>        -0.1204
     22 C19       -10.1355   -4.4235    1.1756 C.3       1 <0>        -0.1214
     23 C20        -9.4236   -5.6239    1.8028 C.3       1 <0>        -0.1205
     24 C21        -7.9256   -5.3308    1.9077 C.3       1 <0>        -0.1107
     25 O3         -0.9726   -5.1947    0.9148 O.3       1 <0>        -0.5435
     26 N1          1.3293   -4.0026   -2.2965 N.pl3     1 <0>        -0.8649
     27 C22         2.4013    0.3884   -4.2304 C.3       1 <0>         0.1157
     28 O4          3.7671    0.6611   -3.9106 O.3       1 <0>        -0.5648
     29 H2          1.0053    1.8021    0.0021 H         1 <0>         0.0582
     30 H3         -0.5445    1.7859   -0.8732 H         1 <0>         0.0557
     31 H4         -0.5275    1.7763    0.9067 H         1 <0>         0.1014
     32 H5          1.1342    1.2384   -2.0053 H         1 <0>         0.1308
     33 H6          2.3218   -2.3037   -4.0613 H         1 <0>         0.1279
     34 H7         -1.8762   -2.2254   -0.3548 H         1 <0>         0.0635
     35 H8         -1.3773   -3.7046   -1.2099 H         1 <0>         0.0515
     36 H9         -2.9067   -5.9666   -0.4491 H         1 <0>         0.1197
     37 H10        -5.3175   -6.4391   -0.6169 H         1 <0>         0.1231
     38 H11        -6.1501   -3.0723    1.8652 H         1 <0>         0.1236
     39 H12        -3.7388   -2.6047    2.0398 H         1 <0>         0.1251
     40 H13        -7.5124   -5.9542   -0.1126 H         1 <0>         0.0778
     41 H14        -7.9140   -2.9924    0.5067 H         1 <0>         0.0641
     42 H15        -7.6642   -3.6899   -1.1117 H         1 <0>         0.0624
     43 H16       -10.0743   -3.3111   -0.6682 H         1 <0>         0.0629
     44 H17        -9.7222   -5.0470   -0.8446 H         1 <0>         0.0620
     45 H18        -9.9804   -3.5428    1.7989 H         1 <0>         0.0616
     46 H19       -11.2027   -4.6324    1.1009 H         1 <0>         0.0616
     47 H20        -9.8286   -5.8072    2.7980 H         1 <0>         0.0632
     48 H21        -9.5787   -6.5046    1.1795 H         1 <0>         0.0620
     49 H22        -7.4185   -6.1859    2.3544 H         1 <0>         0.0632
     50 H23        -7.7705   -4.4501    2.5309 H         1 <0>         0.0643
     51 H24        -1.1031   -5.7355    0.1238 H         1 <0>         0.3696
     52 H25         1.7613   -4.4286   -3.0533 H         1 <0>         0.4020
     53 H26         0.9344   -4.5442   -1.5954 H         1 <0>         0.4038
     54 H27         2.3503   -0.1512   -5.1761 H         1 <0>         0.0578
     55 H28         1.8542    1.3271   -4.3179 H         1 <0>         0.0566
     56 H29         4.2260    1.1983   -4.5708 H         1 <0>         0.3823
@<TRIPOS>BOND
     1    1    2 1
     2    1   29 1
     3    1   30 1
     4    1   31 1
     5    2    3 1
     6    3    8 ar
     7    3    4 ar
     8    4    5 ar
     9    4   32 1
    10    5    6 ar
    11    5   27 1
    12    6    7 ar
    13    6   33 1
    14    7    8 ar
    15    7   26 1
    16    8    9 1
    17    9   10 1
    18   10   11 1
    19   10   34 1
    20   10   35 1
    21   11   12 1
    22   11   13 1
    23   11   25 1
    24   13   18 ar
    25   13   14 ar
    26   14   15 ar
    27   14   36 1
    28   15   16 ar
    29   15   37 1
    30   16   17 ar
    31   16   19 1
    32   17   18 ar
    33   17   38 1
    34   18   39 1
    35   19   24 1
    36   19   20 1
    37   19   40 1
    38   20   21 1
    39   20   41 1
    40   20   42 1
    41   21   22 1
    42   21   43 1
    43   21   44 1
    44   22   23 1
    45   22   45 1
    46   22   46 1
    47   23   24 1
    48   23   47 1
    49   23   48 1
    50   24   49 1
    51   24   50 1
    52   25   51 1
    53   26   52 1
    54   26   53 1
    55   27   28 1
    56   27   54 1
    57   27   55 1
    58   28   56 1
@<TRIPOS>MOLECULE
ZINC58886458
   41    42     0     0     0
SMALL
USER_CHARGES

@<TRIPOS>ATOM
      1 C1         -0.0167    1.3781    0.0096 C.ar      1 <0>        -0.1189
      2 C2          1.1709    2.0855    0.0021 C.ar      1 <0>        -0.1170
      3 C3          2.3773    1.4107   -0.0130 C.ar      1 <0>        -0.1105
      4 C4          2.3960    0.0285   -0.0201 C.ar      1 <0>        -0.1177
      5 C5          1.2084   -0.6789   -0.0117 C.ar      1 <0>        -0.1117
      6 C6          0.0021   -0.0041    0.0020 C.ar      1 <0>        -0.1159
      7 C7          3.7112   -0.7071   -0.0376 C.3       1 <0>         0.1484
      8 H1          4.4875   -0.0738    0.3918 H         1 <0>         0.1101
      9 C8          4.0798   -1.0586   -1.4803 C.3       1 <0>        -0.1310
     10 C9          5.4714   -1.6938   -1.5108 C.3       1 <0>        -0.1314
     11 C10         5.8345   -2.0400   -2.9319 C.2       1 <0>         0.5289
     12 O1          5.0566   -1.8021   -3.8319 O.2       1 <0>        -0.4968
     13 N1          7.0235   -2.6139   -3.2029 N.am      1 <0>        -0.5883
     14 N2          7.3610   -2.9358   -4.5240 N.2       1 <0>        -0.2007
     15 C11         8.5064   -3.4886   -4.7851 C.2       1 <0>         0.0989
     16 C12         8.8613   -3.8271   -6.1741 C.ar      1 <0>        -0.0874
     17 C13        10.0910   -4.4274   -6.4575 C.ar      1 <0>        -0.0317
     18 C14        10.4191   -4.7424   -7.7585 C.ar      1 <0>        -0.1373
     19 C15         9.5302   -4.4642   -8.7912 C.ar      1 <0>         0.1697
     20 C16         8.3076   -3.8681   -8.5196 C.ar      1 <0>        -0.1744
     21 C17         7.9643   -3.5533   -7.2163 C.ar      1 <0>         0.1807
     22 O2          6.7647   -2.9755   -6.9485 O.3       1 <0>        -0.4676
     23 O3          9.8608   -4.7771  -10.0712 O.3       1 <0>        -0.4837
     24 Br1        12.0834   -5.5548   -8.1406 Br        1 <0>        -0.0271
     25 O4          3.5962   -1.9067    0.7305 O.3       1 <0>        -0.5547
     26 H2         -0.9591    1.9053    0.0259 H         1 <0>         0.1232
     27 H3          1.1563    3.1654    0.0076 H         1 <0>         0.1242
     28 H4          3.3051    1.9634   -0.0196 H         1 <0>         0.1235
     29 H5          1.2231   -1.7588   -0.0176 H         1 <0>         0.1200
     30 H6         -0.9258   -0.5567    0.0082 H         1 <0>         0.1239
     31 H7          3.3502   -1.7627   -1.8805 H         1 <0>         0.0786
     32 H8          4.0806   -0.1525   -2.0862 H         1 <0>         0.0848
     33 H9          6.2010   -0.9897   -1.1106 H         1 <0>         0.0995
     34 H10         5.4706   -2.5998   -0.9050 H         1 <0>         0.1057
     35 H11         7.6455   -2.8041   -2.4833 H         1 <0>         0.3866
     36 H12         9.1989   -3.7004   -3.9838 H         1 <0>         0.1246
     37 H13        10.7838   -4.6441   -5.6578 H         1 <0>         0.1476
     38 H14         7.6210   -3.6538   -9.3252 H         1 <0>         0.1493
     39 H15         6.7795   -2.0090   -6.9728 H         1 <0>         0.3994
     40 H16         9.5902   -5.6653  -10.3414 H         1 <0>         0.4006
     41 H17         2.9224   -2.5191    0.4049 H         1 <0>         0.3756
@<TRIPOS>BOND
     1    1    6 ar
     2    1    2 ar
     3    1   26 1
     4    2    3 ar
     5    2   27 1
     6    3    4 ar
     7    3   28 1
     8    4    5 ar
     9    4    7 1
    10    5    6 ar
    11    5   29 1
    12    6   30 1
    13    7    8 1
    14    7    9 1
    15    7   25 1
    16    9   10 1
    17    9   31 1
    18    9   32 1
    19   10   11 1
    20   10   33 1
    21   10   34 1
    22   11   12 2
    23   11   13 am
    24   13   14 1
    25   13   35 1
    26   14   15 2
    27   15   16 1
    28   15   36 1
    29   16   21 ar
    30   16   17 ar
    31   17   18 ar
    32   17   37 1
    33   18   19 ar
    34   18   24 1
    35   19   20 ar
    36   19   23 1
    37   20   21 ar
    38   20   38 1
    39   21   22 1
    40   22   39 1
    41   23   40 1
    42   25   41 1
@<TRIPOS>MOLECULE
ZINC65407204
   48    50     0     0     0
SMALL
USER_CHARGES

@<TRIPOS>ATOM
      1 C1         -0.0184    1.5028    0.0103 C.3       1 <0>        -0.1093
      2 C2          0.0021   -0.0041    0.0020 C.ar      1 <0>        -0.1065
      3 C3          0.0056   -0.6861   -1.2072 C.ar      1 <0>        -0.1032
      4 C4          0.0237   -2.0631   -1.2372 C.ar      1 <0>        -0.0916
      5 C5          0.0391   -2.7800   -0.0450 C.ar      1 <0>         0.0956
      6 C6          0.0359   -2.0843    1.1776 C.ar      1 <0>        -0.0801
      7 C7          0.0226   -0.6880    1.1846 C.ar      1 <0>        -0.0788
      8 C8          0.0547   -3.1075    2.2257 C.2       1 <0>        -0.1594
      9 C9          0.0674   -4.3001    1.6096 C.2       1 <0>         0.0985
     10 N1          0.0584   -4.1242    0.2526 N.pl3     1 <0>        -0.5893
     11 H1          0.0650   -4.8399   -0.4021 H         1 <0>         0.4131
     12 C10         0.0881   -5.6349    2.3088 C.3       1 <0>        -0.0960
     13 C11         0.0592   -2.8670    3.7133 C.3       1 <0>        -0.0623
     14 C12        -1.3599   -2.8053    4.2166 C.2       1 <0>         0.5117
     15 O1         -2.2841   -2.9431    3.4433 O.2       1 <0>        -0.5243
     16 N2         -1.6022   -2.5970    5.5259 N.am      1 <0>        -0.7371
     17 C13        -2.9817   -2.5370    6.0152 C.3       1 <0>         0.1204
     18 C14        -2.9771   -2.2928    7.5255 C.3       1 <0>        -0.1276
     19 C15        -4.4179   -2.2301    8.0365 C.3       1 <0>        -0.0145
     20 C16        -4.4133   -1.9896    9.5241 C.2       1 <0>         0.0469
     21 N3         -4.4304   -0.8581   10.1988 N.2       1 <0>        -0.2389
     22 N4         -4.4237   -0.8271   11.4597 N.2       1 <0>        -0.3588
     23 C17        -4.3989   -1.9366   12.1862 C.2       1 <0>         0.3387
     24 S1         -4.3911   -3.1602   10.8788 S.3       1 <0>        -0.0590
     25 N5         -4.3875   -2.1017   13.5632 N.pl3     1 <0>        -0.7845
     26 C18         0.0264   -2.7906   -2.5570 C.3       1 <0>        -0.1112
     27 H2          1.0042    1.8801    0.0026 H         1 <0>         0.0666
     28 H3         -0.5455    1.8639   -0.8728 H         1 <0>         0.0638
     29 H4         -0.5286    1.8543    0.9071 H         1 <0>         0.0634
     30 H5         -0.0063   -0.1313   -2.1338 H         1 <0>         0.1237
     31 H6          0.0245   -0.1507    2.1214 H         1 <0>         0.1168
     32 H7         -0.9344   -5.9702    2.4821 H         1 <0>         0.0793
     33 H8          0.6087   -6.3630    1.6866 H         1 <0>         0.0690
     34 H9          0.6051   -5.5370    3.2634 H         1 <0>         0.0829
     35 H10         0.5863   -3.6808    4.2114 H         1 <0>         0.0986
     36 H11         0.5620   -1.9238    3.9273 H         1 <0>         0.0997
     37 H12        -0.8630   -2.4868    6.1444 H         1 <0>         0.4005
     38 H13        -3.5088   -1.7232    5.5171 H         1 <0>         0.0718
     39 H14        -3.4845   -3.4802    5.8011 H         1 <0>         0.0699
     40 H15        -2.4501   -3.1066    8.0235 H         1 <0>         0.0744
     41 H16        -2.4744   -1.3496    7.7395 H         1 <0>         0.0798
     42 H17        -4.9450   -1.4163    7.5384 H         1 <0>         0.1084
     43 H18        -4.9206   -3.1733    7.8224 H         1 <0>         0.0970
     44 H19        -4.3986   -1.3255   14.1449 H         1 <0>         0.4230
     45 H20        -4.3685   -2.9933   13.9447 H         1 <0>         0.4237
     46 H21         1.0546   -2.9524   -2.8806 H         1 <0>         0.0683
     47 H22        -0.4741   -3.7521   -2.4428 H         1 <0>         0.0563
     48 H23        -0.4994   -2.1935   -3.3020 H         1 <0>         0.0704
@<TRIPOS>BOND
     1    1    2 1
     2    1   27 1
     3    1   28 1
     4    1   29 1
     5    2    7 ar
     6    2    3 ar
     7    3    4 ar
     8    3   30 1
     9    4    5 ar
    10    4   26 1
    11    5   10 1
    12    5    6 ar
    13    6    7 ar
    14    6    8 1
    15    7   31 1
    16    8    9 2
    17    8   13 1
    18    9   10 1
    19    9   12 1
    20   10   11 1
    21   12   32 1
    22   12   33 1
    23   12   34 1
    24   13   14 1
    25   13   35 1
    26   13   36 1
    27   14   15 2
    28   14   16 am
    29   16   17 1
    30   16   37 1
    31   17   18 1
    32   17   38 1
    33   17   39 1
    34   18   19 1
    35   18   40 1
    36   18   41 1
    37   19   20 1
    38   19   42 1
    39   19   43 1
    40   20   24 1
    41   20   21 2
    42   21   22 1
    43   22   23 2
    44   23   24 1
    45   23   25 1
    46   25   44 1
    47   25   45 1
    48   26   46 1
    49   26   47 1
    50   26   48 1
@<TRIPOS>MOLECULE
ZINC06667799
   54    55     0     0     0
SMALL
USER_CHARGES
N-(1-carbamoyl-2-phenyl-ethyl)-6-(5-methyl-2-oxo-imidazolidin-4-yl)-hexanamide
@<TRIPOS>ATOM
      1 C1          2.0260    1.5911    1.2492 C.3       1 <0>        -0.1653
      2 C2          1.1757    1.8341    0.0007 C.3       1 <0>         0.1204
      3 H1          1.7643    1.6706   -0.9020 H         1 <0>         0.0923
      4 C3          0.5904    3.2596    0.0139 C.3       1 <0>         0.1237
      5 H2          0.8883    3.8039   -0.8822 H         1 <0>         0.0927
      6 N1         -0.8641    3.0431    0.0267 N.am      1 <0>        -0.7348
      7 C4         -1.1132    1.7270    0.0161 C.2       1 <0>         0.7000
      8 O1         -2.2379    1.2652    0.0184 O.2       1 <0>        -0.5901
      9 N2         -0.0111    0.9658    0.0074 N.am      1 <0>        -0.7380
     10 C5          1.0356    4.0113    1.2700 C.3       1 <0>        -0.1307
     11 C6          0.5457    5.4590    1.1985 C.3       1 <0>        -0.1212
     12 C7          0.9909    6.2107    2.4545 C.3       1 <0>        -0.1184
     13 C8          0.5010    7.6584    2.3830 C.3       1 <0>        -0.1045
     14 C9          0.9462    8.4101    3.6390 C.3       1 <0>        -0.1388
     15 C10         0.4637    9.8360    3.5686 C.2       1 <0>         0.5223
     16 O2         -0.1735   10.2138    2.6083 O.2       1 <0>        -0.5364
     17 N3          0.7403   10.6914    4.5727 N.am      1 <0>        -0.7091
     18 C11         0.2713   12.0776    4.5042 C.3       1 <0>         0.1343
     19 H3         -0.7002   12.1085    4.0108 H         1 <0>         0.1177
     20 C12         0.1423   12.6429    5.9201 C.3       1 <0>        -0.0839
     21 C13        -0.9335   11.8943    6.6638 C.ar      1 <0>        -0.0865
     22 C14        -2.2413   12.3402    6.6215 C.ar      1 <0>        -0.1136
     23 C15        -3.2289   11.6507    7.2998 C.ar      1 <0>        -0.1157
     24 C16        -2.9071   10.5213    8.0290 C.ar      1 <0>        -0.1187
     25 C17        -1.5984   10.0784    8.0756 C.ar      1 <0>        -0.1165
     26 C18        -0.6116   10.7649    7.3930 C.ar      1 <0>        -0.1115
     27 C19         1.2588   12.9040    3.7213 C.2       1 <0>         0.5064
     28 O3          2.2562   12.3860    3.2655 O.2       1 <0>        -0.5296
     29 N4          1.0336   14.2186    3.5278 N.am      1 <0>        -0.8532
     30 H4          2.3708    0.5571    1.2584 H         1 <0>         0.0635
     31 H5          2.8859    2.2608    1.2392 H         1 <0>         0.0763
     32 H6          1.4270    1.7822    2.1396 H         1 <0>         0.0669
     33 H7         -1.5363    3.7423    0.0369 H         1 <0>         0.4286
     34 H8          0.0021   -0.0041    0.0020 H         1 <0>         0.4286
     35 H9          0.6137    3.5281    2.1513 H         1 <0>         0.0735
     36 H10         2.1236    3.9987    1.3345 H         1 <0>         0.0833
     37 H11         0.9676    5.9422    0.3172 H         1 <0>         0.0664
     38 H12        -0.5423    5.4716    1.1340 H         1 <0>         0.0620
     39 H13         0.5690    5.7275    3.3358 H         1 <0>         0.0626
     40 H14         2.0789    6.1980    2.5190 H         1 <0>         0.0644
     41 H15         0.9229    8.1416    1.5017 H         1 <0>         0.0704
     42 H16        -0.5870    7.6710    2.3185 H         1 <0>         0.0693
     43 H17         0.5244    7.9269    4.5203 H         1 <0>         0.0934
     44 H18         2.0342    8.3974    3.7035 H         1 <0>         0.0954
     45 H19         1.2500   10.3892    5.3407 H         1 <0>         0.4035
     46 H20         1.0916   12.5307    6.4439 H         1 <0>         0.0870
     47 H21        -0.1206   13.6994    5.8669 H         1 <0>         0.0945
     48 H22        -2.4920   13.2251    6.0554 H         1 <0>         0.1228
     49 H23        -4.2513   11.9970    7.2636 H         1 <0>         0.1235
     50 H24        -3.6779    9.9852    8.5626 H         1 <0>         0.1225
     51 H25        -1.3469    9.1962    8.6456 H         1 <0>         0.1232
     52 H26         0.4108   10.4190    7.4298 H         1 <0>         0.1195
     53 H27         0.2359   14.6329    3.8924 H         1 <0>         0.4014
     54 H28         1.6693   14.7505    3.0239 H         1 <0>         0.4042
@<TRIPOS>BOND
     1    1    2 1
     2    1   30 1
     3    1   31 1
     4    1   32 1
     5    2    3 1
     6    2    9 1
     7    2    4 1
     8    4    5 1
     9    4    6 1
    10    4   10 1
    11    6    7 am
    12    6   33 1
    13    7    8 2
    14    7    9 am
    15    9   34 1
    16   10   11 1
    17   10   35 1
    18   10   36 1
    19   11   12 1
    20   11   37 1
    21   11   38 1
    22   12   13 1
    23   12   39 1
    24   12   40 1
    25   13   14 1
    26   13   41 1
    27   13   42 1
    28   14   15 1
    29   14   43 1
    30   14   44 1
    31   15   16 2
    32   15   17 am
    33   17   18 1
    34   17   45 1
    35   18   19 1
    36   18   20 1
    37   18   27 1
    38   20   21 1
    39   20   46 1
    40   20   47 1
    41   21   26 ar
    42   21   22 ar
    43   22   23 ar
    44   22   48 1
    45   23   24 ar
    46   23   49 1
    47   24   25 ar
    48   24   50 1
    49   25   26 ar
    50   25   51 1
    51   26   52 1
    52   27   28 2
    53   27   29 am
    54   29   53 1
    55   29   54 1
@<TRIPOS>MOLECULE
ZINC13401953
   51    52     0     0     0
SMALL
USER_CHARGES
(2S,3S,4R)-5-[(4,5-dimethyl-2-phenylazo-phenyl)amino]pentane-1,2,3,4-tetrol
@<TRIPOS>ATOM
      1 C1         -6.1457    6.1167    0.0637 C.3       1 <0>        -0.1260
      2 C2         -4.8292    5.3834    0.0541 C.ar      1 <0>         0.0016
      3 C3         -3.6466    6.0969    0.0524 C.ar      1 <0>        -0.2113
      4 C4         -2.4307    5.4280    0.0489 C.ar      1 <0>         0.2855
      5 C5         -2.4103    4.0229    0.0353 C.ar      1 <0>        -0.0360
      6 C6         -3.6159    3.3155    0.0372 C.ar      1 <0>        -0.0388
      7 C7         -4.8132    3.9981    0.0465 C.ar      1 <0>        -0.1530
      8 C8         -6.1119    3.2336    0.0480 C.3       1 <0>        -0.1101
      9 N1         -1.2221    3.3539    0.0261 N.2       1 <0>        -0.1984
     10 N2         -1.2082    2.0640    0.0190 N.2       1 <0>        -0.2450
     11 C9         -0.0169    1.3932    0.0097 C.ar      1 <0>         0.0579
     12 C10         1.1877    2.1016    0.0020 C.ar      1 <0>        -0.1093
     13 C11         2.3855    1.4182   -0.0136 C.ar      1 <0>        -0.1219
     14 C12         2.3964    0.0344   -0.0206 C.ar      1 <0>        -0.1024
     15 C13         1.2076   -0.6738   -0.0131 C.ar      1 <0>        -0.1214
     16 C14         0.0021   -0.0041    0.0020 C.ar      1 <0>        -0.0688
     17 N3         -1.2383    6.1446    0.0534 N.pl3     1 <0>        -0.7181
     18 C15        -1.2641    7.6093    0.0675 C.3       1 <0>         0.0916
     19 C16         0.1692    8.1446    0.0698 C.3       1 <0>         0.0720
     20 H1          0.7175    7.7115    0.9064 H         1 <0>         0.1152
     21 C17         0.1445    9.6680    0.2102 C.3       1 <0>         0.0470
     22 H2         -0.2651    9.9365    1.1840 H         1 <0>         0.1210
     23 C18         1.5682   10.2146    0.0875 C.3       1 <0>         0.0828
     24 H3          2.1679    9.8575    0.9248 H         1 <0>         0.1136
     25 C19         1.5304   11.7440    0.1029 C.3       1 <0>         0.0474
     26 O1          2.8655   12.2535    0.1058 O.3       1 <0>        -0.5655
     27 O2          2.1471    9.7648   -1.1391 O.3       1 <0>        -0.5261
     28 O3         -0.6713   10.2282   -0.8207 O.3       1 <0>        -0.5489
     29 O4          0.8122    7.7896   -1.1560 O.3       1 <0>        -0.5290
     30 H4         -6.4587    6.2880    1.0937 H         1 <0>         0.0780
     31 H5         -6.0323    7.0738   -0.4454 H         1 <0>         0.0692
     32 H6         -6.8984    5.5188   -0.4501 H         1 <0>         0.0765
     33 H7         -3.6681    7.1767    0.0579 H         1 <0>         0.1310
     34 H8         -3.6092    2.2355    0.0317 H         1 <0>         0.1375
     35 H9         -6.4203    3.0434    1.0760 H         1 <0>         0.0664
     36 H10        -6.8788    3.8191   -0.4590 H         1 <0>         0.0685
     37 H11        -5.9758    2.2853   -0.4719 H         1 <0>         0.0635
     38 H12         1.1806    3.1816    0.0075 H         1 <0>         0.1315
     39 H13         3.3172    1.9643   -0.0199 H         1 <0>         0.1259
     40 H14         3.3375   -0.4954   -0.0325 H         1 <0>         0.1266
     41 H15         1.2238   -1.7537   -0.0194 H         1 <0>         0.1312
     42 H16        -0.9250   -0.5581    0.0075 H         1 <0>         0.1329
     43 H17        -0.3899    5.6745    0.0472 H         1 <0>         0.4137
     44 H18        -1.7860    7.9721   -0.8180 H         1 <0>         0.0745
     45 H19        -1.7824    7.9550    0.9619 H         1 <0>         0.0739
     46 H20         1.0062   12.1035   -0.7826 H         1 <0>         0.0548
     47 H21         1.0093   12.0856    0.9973 H         1 <0>         0.0543
     48 H22         2.9180   13.2191    0.1154 H         1 <0>         0.3819
     49 H23         1.6644   10.0462   -1.9283 H         1 <0>         0.3630
     50 H24        -0.3654   10.0291   -1.7161 H         1 <0>         0.3722
     51 H25         0.3773    8.1418   -1.9446 H         1 <0>         0.3675
@<TRIPOS>BOND
     1    1    2 1
     2    1   30 1
     3    1   31 1
     4    1   32 1
     5    2    7 ar
     6    2    3 ar
     7    3    4 ar
     8    3   33 1
     9    4    5 ar
    10    4   17 1
    11    5    6 ar
    12    5    9 1
    13    6    7 ar
    14    6   34 1
    15    7    8 1
    16    8   35 1
    17    8   36 1
    18    8   37 1
    19    9   10 2
    20   10   11 1
    21   11   16 ar
    22   11   12 ar
    23   12   13 ar
    24   12   38 1
    25   13   14 ar
    26   13   39 1
    27   14   15 ar
    28   14   40 1
    29   15   16 ar
    30   15   41 1
    31   16   42 1
    32   17   18 1
    33   17   43 1
    34   18   19 1
    35   18   44 1
    36   18   45 1
    37   19   20 1
    38   19   21 1
    39   19   29 1
    40   21   22 1
    41   21   23 1
    42   21   28 1
    43   23   24 1
    44   23   25 1
    45   23   27 1
    46   25   26 1
    47   25   46 1
    48   25   47 1
    49   26   48 1
    50   27   49 1
    51   28   50 1
    52   29   51 1
@<TRIPOS>MOLECULE
ZINC40793640
   44    46     0     0     0
SMALL
USER_CHARGES

@<TRIPOS>ATOM
      1 C1         -0.3255    1.1612    3.3011 C.3       1 <0>         0.0228
      2 O1         -0.2797   -0.2445    3.0483 O.3       1 <0>        -0.3109
      3 C2         -1.4521   -0.8531    2.7369 C.ar      1 <0>         0.1613
      4 C3         -2.6236   -0.1080    2.6709 C.ar      1 <0>        -0.2177
      5 C4         -3.8153   -0.7218    2.3558 C.ar      1 <0>        -0.0102
      6 C5         -3.8457   -2.0956    2.1018 C.ar      1 <0>        -0.1720
      7 C6         -2.6657   -2.8410    2.1688 C.ar      1 <0>        -0.0426
      8 C7         -1.4771   -2.2188    2.4795 C.ar      1 <0>        -0.1574
      9 C8         -5.1209   -2.7576    1.7642 C.2       1 <0>         0.5646
     10 O2         -6.1468   -2.1076    1.7067 O.2       1 <0>        -0.5435
     11 N1         -5.1482   -4.0827    1.5196 N.am      1 <0>        -0.5076
     12 N2         -6.3587   -4.7111    1.1991 N.pl3     1 <0>        -0.5090
     13 C9         -6.3868   -6.0775    0.9469 C.ar      1 <0>         0.4082
     14 C10        -7.5863   -6.7137    0.6209 C.ar      1 <0>         0.0218
     15 C11        -7.5583   -8.0877    0.3767 C.ar      1 <0>         0.3920
     16 N3         -6.3978   -8.7345    0.4632 N.ar      1 <0>        -0.5588
     17 C12        -5.2883   -8.0959    0.7739 C.ar      1 <0>         0.3317
     18 N4         -5.2702   -6.7988    1.0070 N.ar      1 <0>        -0.5719
     19 N5         -8.7241   -8.7703    0.0486 N.pl3     1 <0>        -0.6443
     20 C13        -8.7113  -10.1663   -0.0590 C.ar      1 <0>         0.1341
     21 C14        -7.6887  -10.8995    0.5273 C.ar      1 <0>        -0.0873
     22 C15        -7.6780  -12.2769    0.4204 C.ar      1 <0>        -0.1344
     23 C16        -8.6862  -12.9274   -0.2708 C.ar      1 <0>         0.0999
     24 C17        -9.7079  -12.1996   -0.8571 C.ar      1 <0>        -0.1649
     25 C18        -9.7261  -10.8211   -0.7485 C.ar      1 <0>         0.0809
     26 F1        -10.7258  -10.1110   -1.3156 F         1 <0>        -0.1334
     27 F2         -8.6726  -14.2744   -0.3739 F         1 <0>        -0.1332
     28 N6         -8.7877   -5.9912    0.5413 N.pl3     1 <0>        -0.8734
     29 H1          0.6760    1.5207    3.5373 H         1 <0>         0.1051
     30 H2         -0.6976    1.6776    2.4163 H         1 <0>         0.0602
     31 H3         -0.9899    1.3575    4.1427 H         1 <0>         0.0602
     32 H4         -2.5993    0.9537    2.8672 H         1 <0>         0.1387
     33 H5         -4.7252   -0.1423    2.3053 H         1 <0>         0.1416
     34 H6         -2.6851   -3.9029    1.9733 H         1 <0>         0.1356
     35 H7         -0.5639   -2.7934    2.5272 H         1 <0>         0.1419
     36 H8         -4.3298   -4.6013    1.5655 H         1 <0>         0.4333
     37 H9         -7.1771   -4.1925    1.1533 H         1 <0>         0.4388
     38 H10        -4.3643   -8.6516    0.8355 H         1 <0>         0.2042
     39 H11        -9.5463   -8.2794   -0.1058 H         1 <0>         0.4188
     40 H12        -6.9016  -10.3934    1.0664 H         1 <0>         0.1826
     41 H13        -6.8821  -12.8470    0.8764 H         1 <0>         0.1460
     42 H14       -10.4932  -12.7090   -1.3958 H         1 <0>         0.1504
     43 H15        -8.7920   -5.0367    0.7140 H         1 <0>         0.3994
     44 H16        -9.6134   -6.4466    0.3137 H         1 <0>         0.3985
@<TRIPOS>BOND
     1    1    2 1
     2    1   29 1
     3    1   30 1
     4    1   31 1
     5    2    3 1
     6    3    8 ar
     7    3    4 ar
     8    4    5 ar
     9    4   32 1
    10    5    6 ar
    11    5   33 1
    12    6    7 ar
    13    6    9 1
    14    7    8 ar
    15    7   34 1
    16    8   35 1
    17    9   10 2
    18    9   11 am
    19   11   12 1
    20   11   36 1
    21   12   13 1
    22   12   37 1
    23   13   18 ar
    24   13   14 ar
    25   14   15 ar
    26   14   28 1
    27   15   16 ar
    28   15   19 1
    29   16   17 ar
    30   17   18 ar
    31   17   38 1
    32   19   20 1
    33   19   39 1
    34   20   25 ar
    35   20   21 ar
    36   21   22 ar
    37   21   40 1
    38   22   23 ar
    39   22   41 1
    40   23   24 ar
    41   23   27 1
    42   24   25 ar
    43   24   42 1
    44   25   26 1
    45   28   43 1
    46   28   44 1
@<TRIPOS>MOLECULE
ZINC04959817
   51    52     0     0     0
SMALL
USER_CHARGES

@<TRIPOS>ATOM
      1 C1         -0.0184    1.5028    0.0103 C.3       1 <0>        -0.1244
      2 C2          0.0021   -0.0041    0.0020 C.ar      1 <0>         0.0019
      3 C3          0.0056   -0.6835   -1.2005 C.ar      1 <0>        -0.2116
      4 C4          0.0244   -2.0710   -1.2155 C.ar      1 <0>         0.2857
      5 C5          0.0398   -2.7791   -0.0017 C.ar      1 <0>        -0.0362
      6 C6          0.0359   -2.0768    1.2068 C.ar      1 <0>        -0.0390
      7 C7          0.0229   -0.6985    1.2006 C.ar      1 <0>        -0.1531
      8 C8          0.0255    0.0569    2.5046 C.3       1 <0>        -0.1087
      9 N1          0.0578   -4.1427   -0.0029 N.2       1 <0>        -0.1983
     10 N2          0.0719   -4.7885    1.1136 N.2       1 <0>        -0.2451
     11 C9          0.0900   -6.1556    1.1124 C.ar      1 <0>         0.0579
     12 C10         0.0991   -6.8566   -0.0965 C.ar      1 <0>        -0.1092
     13 C11         0.1174   -8.2356   -0.0899 C.ar      1 <0>        -0.1219
     14 C12         0.1262   -8.9251    1.1099 C.ar      1 <0>        -0.1024
     15 C13         0.1168   -8.2377    2.3110 C.ar      1 <0>        -0.1215
     16 C14         0.1053   -6.8587    2.3200 C.ar      1 <0>        -0.0689
     17 N3          0.0275   -2.7572   -2.4256 N.pl3     1 <0>        -0.7174
     18 C15         0.0110   -2.0151   -3.6886 C.3       1 <0>         0.0893
     19 C16         0.0184   -3.0004   -4.8591 C.3       1 <0>         0.0740
     20 H1         -0.8627   -3.6395   -4.8017 H         1 <0>         0.1076
     21 C17         0.0011   -2.2253   -6.1782 C.3       1 <0>         0.0520
     22 H2          0.8822   -1.5862   -6.2356 H         1 <0>         0.1067
     23 C18         0.0085   -3.2105   -7.3487 C.3       1 <0>         0.0846
     24 H3         -0.8726   -3.8497   -7.2913 H         1 <0>         0.1060
     25 C19        -0.0087   -2.4355   -8.6678 C.3       1 <0>         0.0446
     26 O1         -0.1193   -3.3529   -9.7579 O.3       1 <0>        -0.5651
     27 O2          1.1867   -4.0167   -7.2853 O.3       1 <0>        -0.5274
     28 O3         -1.1770   -1.4191   -6.2416 O.3       1 <0>        -0.5470
     29 O4          1.1966   -3.8065   -4.7957 O.3       1 <0>        -0.5300
     30 H4          1.0042    1.8801    0.0026 H         1 <0>         0.0776
     31 H5         -0.5455    1.8639   -0.8728 H         1 <0>         0.0698
     32 H6         -0.5286    1.8543    0.9071 H         1 <0>         0.0747
     33 H7         -0.0066   -0.1342   -2.1303 H         1 <0>         0.1308
     34 H8          0.0473   -2.6132    2.1441 H         1 <0>         0.1375
     35 H9         -1.0014    0.2254    2.8289 H         1 <0>         0.0662
     36 H10         0.5544   -0.5241    3.2600 H         1 <0>         0.0640
     37 H11         0.5253    1.0159    2.3679 H         1 <0>         0.0667
     38 H12         0.0916   -6.3197   -1.0336 H         1 <0>         0.1316
     39 H13         0.1244   -8.7787   -1.0234 H         1 <0>         0.1259
     40 H14         0.1401  -10.0050    1.1089 H         1 <0>         0.1265
     41 H15         0.1230   -8.7825    3.2435 H         1 <0>         0.1312
     42 H16         0.1032   -6.3234    3.2581 H         1 <0>         0.1329
     43 H17         0.0407   -3.7271   -2.4330 H         1 <0>         0.4144
     44 H18        -0.8877   -1.4002   -3.7369 H         1 <0>         0.0812
     45 H19         0.8921   -1.3760   -3.7460 H         1 <0>         0.0673
     46 H20        -0.8599   -1.7547   -8.6781 H         1 <0>         0.0626
     47 H21         0.9145   -1.8644   -8.7657 H         1 <0>         0.0478
     48 H22        -0.1361   -2.9302  -10.6274 H         1 <0>         0.3818
     49 H23         2.0109   -3.5130   -7.3311 H         1 <0>         0.3694
     50 H24        -2.0012   -1.9228   -6.1958 H         1 <0>         0.3830
     51 H25         2.0208   -3.3028   -4.8415 H         1 <0>         0.3740
@<TRIPOS>BOND
     1    1    2 1
     2    1   30 1
     3    1   31 1
     4    1   32 1
     5    2    7 ar
     6    2    3 ar
     7    3    4 ar
     8    3   33 1
     9    4    5 ar
    10    4   17 1
    11    5    6 ar
    12    5    9 1
    13    6    7 ar
    14    6   34 1
    15    7    8 1
    16    8   35 1
    17    8   36 1
    18    8   37 1
    19    9   10 2
    20   10   11 1
    21   11   16 ar
    22   11   12 ar
    23   12   13 ar
    24   12   38 1
    25   13   14 ar
    26   13   39 1
    27   14   15 ar
    28   14   40 1
    29   15   16 ar
    30   15   41 1
    31   16   42 1
    32   17   18 1
    33   17   43 1
    34   18   19 1
    35   18   44 1
    36   18   45 1
    37   19   20 1
    38   19   21 1
    39   19   29 1
    40   21   22 1
    41   21   23 1
    42   21   28 1
    43   23   24 1
    44   23   25 1
    45   23   27 1
    46   25   26 1
    47   25   46 1
    48   25   47 1
    49   26   48 1
    50   27   49 1
    51   28   50 1
    52   29   51 1
@<TRIPOS>MOLECULE
ZINC66142506
   52    53     0     0     0
SMALL
USER_CHARGES

@<TRIPOS>ATOM
      1 C1          0.1960    1.3040    0.1040 C.3       1 <0>        -0.1576
      2 C2          0.0183   -0.2132    0.0187 C.3       1 <0>        -0.1375
      3 C3         -1.4737   -0.5515   -0.0018 C.3       1 <0>         0.0658
      4 H1         -1.9578   -0.0108   -0.8150 H         1 <0>         0.1020
      5 C4         -1.6499   -2.0338   -0.2091 C.2       1 <0>         0.5198
      6 O1         -2.1441   -2.7139    0.6650 O.2       1 <0>        -0.5141
      7 N1         -1.2582   -2.6036   -1.3660 N.am      1 <0>        -0.7100
      8 C5         -1.4295   -4.0445   -1.5676 C.3       1 <0>         0.1213
      9 H2         -2.3463   -4.3734   -1.0783 H         1 <0>         0.1094
     10 C6         -0.2355   -4.7890   -0.9669 C.3       1 <0>         0.0683
     11 O2          0.9509   -4.4451   -1.6855 O.3       1 <0>        -0.5531
     12 C7         -1.5156   -4.3432   -3.0657 C.3       1 <0>         0.1545
     13 H3         -1.7315   -5.4013   -3.2134 H         1 <0>         0.1164
     14 C8         -2.6146   -3.5156   -3.6806 C.ar      1 <0>        -0.1774
     15 C9         -2.3552   -2.2215   -4.0933 C.ar      1 <0>        -0.0625
     16 C10        -3.3601   -1.4603   -4.6572 C.ar      1 <0>        -0.1950
     17 C11        -4.6327   -1.9960   -4.8097 C.ar      1 <0>         0.2198
     18 C12        -4.8899   -3.2963   -4.3941 C.ar      1 <0>        -0.1937
     19 C13        -3.8789   -4.0539   -3.8361 C.ar      1 <0>        -0.0574
     20 N2         -5.6515   -1.2288   -5.3792 N.pl3     1 <0>        -0.8774
     21 O3         -0.2706   -4.0197   -3.6882 O.3       1 <0>        -0.5252
     22 O4         -2.0656   -0.1709    1.2420 O.3       1 <0>        -0.2819
     23 C14        -2.6333    1.0623    1.3033 C.ar      1 <0>         0.1260
     24 C15        -2.6796    1.8630    0.1713 C.ar      1 <0>        -0.2071
     25 C16        -3.2576    3.1160    0.2361 C.ar      1 <0>        -0.0798
     26 C17        -3.7893    3.5725    1.4280 C.ar      1 <0>        -0.1239
     27 C18        -3.7440    2.7767    2.5577 C.ar      1 <0>        -0.0793
     28 C19        -3.1726    1.5204    2.4966 C.ar      1 <0>        -0.1453
     29 C20        -4.4188    4.9401    1.4960 C.3       1 <0>        -0.1112
     30 H4          1.2589    1.5451    0.1186 H         1 <0>         0.0645
     31 H5         -0.2712    1.7738   -0.7614 H         1 <0>         0.0590
     32 H6         -0.2730    1.6741    1.0157 H         1 <0>         0.0628
     33 H7          0.4873   -0.5833   -0.8930 H         1 <0>         0.0839
     34 H8          0.4855   -0.6830    0.8842 H         1 <0>         0.0817
     35 H9         -0.8630   -2.0597   -2.0651 H         1 <0>         0.3966
     36 H10        -0.1208   -4.5072    0.0798 H         1 <0>         0.0504
     37 H11        -0.4044   -5.8635   -1.0374 H         1 <0>         0.0555
     38 H12         1.7493   -4.8815   -1.3584 H         1 <0>         0.3755
     39 H13        -1.3657   -1.8055   -3.9741 H         1 <0>         0.1135
     40 H14        -3.1569   -0.4496   -4.9790 H         1 <0>         0.1208
     41 H15        -5.8782   -3.7157   -4.5108 H         1 <0>         0.1215
     42 H16        -4.0770   -5.0664   -3.5168 H         1 <0>         0.1232
     43 H17        -5.4708   -0.3208   -5.6687 H         1 <0>         0.3988
     44 H18        -6.5397   -1.6040   -5.4851 H         1 <0>         0.3993
     45 H19        -0.0144   -3.0918   -3.5965 H         1 <0>         0.3655
     46 H20        -2.2637    1.5071   -0.7598 H         1 <0>         0.1295
     47 H21        -3.2939    3.7397   -0.6449 H         1 <0>         0.1241
     48 H22        -4.1597    3.1357    3.4876 H         1 <0>         0.1296
     49 H23        -3.1414    0.8974    3.3782 H         1 <0>         0.1318
     50 H24        -5.4807    4.8633    1.2621 H         1 <0>         0.0681
     51 H25        -4.2964    5.3469    2.4998 H         1 <0>         0.0657
     52 H26        -3.9348    5.5991    0.7753 H         1 <0>         0.0646
@<TRIPOS>BOND
     1    1    2 1
     2    1   30 1
     3    1   31 1
     4    1   32 1
     5    2    3 1
     6    2   33 1
     7    2   34 1
     8    3    4 1
     9    3    5 1
    10    3   22 1
    11    5    6 2
    12    5    7 am
    13    7    8 1
    14    7   35 1
    15    8    9 1
    16    8   10 1
    17    8   12 1
    18   10   11 1
    19   10   36 1
    20   10   37 1
    21   11   38 1
    22   12   13 1
    23   12   14 1
    24   12   21 1
    25   14   19 ar
    26   14   15 ar
    27   15   16 ar
    28   15   39 1
    29   16   17 ar
    30   16   40 1
    31   17   18 ar
    32   17   20 1
    33   18   19 ar
    34   18   41 1
    35   19   42 1
    36   20   43 1
    37   20   44 1
    38   21   45 1
    39   22   23 1
    40   23   28 ar
    41   23   24 ar
    42   24   25 ar
    43   24   46 1
    44   25   26 ar
    45   25   47 1
    46   26   27 ar
    47   26   29 1
    48   27   28 ar
    49   27   48 1
    50   28   49 1
    51   29   50 1
    52   29   51 1
    53   29   52 1
@<TRIPOS>MOLECULE
ZINC04252534
   54    56     0     0     0
SMALL
USER_CHARGES
1-[2,4-dihydroxy-6-[3,4,5-trihydroxy-6-(hydroxymethyl)tetrahydropyran-2-yl]oxy-phenyl]-3-phenyl-propan-1-one
@<TRIPOS>ATOM
      1 C1         -3.9997   10.1532    0.0964 C.ar      1 <0>        -0.1251
      2 C2         -4.0051    9.4689   -1.1047 C.ar      1 <0>        -0.1183
      3 C3         -3.9943    8.0866   -1.1127 C.ar      1 <0>        -0.1182
      4 C4         -3.9777    7.3886    0.0804 C.ar      1 <0>        -0.0809
      5 C5         -3.9776    8.0729    1.2815 C.ar      1 <0>        -0.1162
      6 C6         -3.9840    9.4552    1.2895 C.ar      1 <0>        -0.1175
      7 C7         -3.9658    5.8817    0.0716 C.3       1 <0>        -0.0750
      8 C8         -2.5194    5.3831    0.0552 C.3       1 <0>        -0.1362
      9 C9         -2.5076    3.8762    0.0464 C.2       1 <0>         0.3967
     10 O1         -3.5539    3.2610    0.0527 O.2       1 <0>        -0.4313
     11 C10        -1.2363    3.1556    0.0304 C.ar      1 <0>        -0.2420
     12 C11        -0.0202    3.8645    0.0230 C.ar      1 <0>         0.2044
     13 C12         1.1766    3.1741    0.0083 C.ar      1 <0>        -0.2219
     14 C13         1.1823    1.7845    0.0004 C.ar      1 <0>         0.1980
     15 C14        -0.0126    1.0758    0.0080 C.ar      1 <0>        -0.2419
     16 C15        -1.2201    1.7483    0.0174 C.ar      1 <0>         0.2193
     17 O2         -2.3852    1.0544    0.0191 O.3       1 <0>        -0.2764
     18 C16        -2.2912   -0.3715    0.0109 C.3       1 <0>         0.2105
     19 H1         -1.6755   -0.7000    0.8483 H         1 <0>         0.1099
     20 C17        -3.6918   -0.9763    0.1387 C.3       1 <0>         0.0668
     21 H2         -4.1634   -0.6133    1.0519 H         1 <0>         0.0769
     22 C18        -4.5320   -0.5589   -1.0721 C.3       1 <0>         0.0809
     23 H3         -5.5126   -1.0316   -1.0159 H         1 <0>         0.0716
     24 C19        -3.8201   -1.0064   -2.3525 C.3       1 <0>         0.0915
     25 H4         -4.3835   -0.6650   -3.2209 H         1 <0>         0.0744
     26 C20        -2.4146   -0.4005   -2.3840 C.3       1 <0>         0.1096
     27 H5         -2.4878    0.6868   -2.4092 H         1 <0>         0.0905
     28 O3         -1.6975   -0.8029   -1.2153 O.3       1 <0>        -0.3538
     29 C21        -1.6753   -0.8911   -3.6304 C.3       1 <0>         0.0873
     30 O4         -0.4079   -0.2372   -3.7208 O.3       1 <0>        -0.5682
     31 O5         -3.7261   -2.4322   -2.3732 O.3       1 <0>        -0.5299
     32 O6         -4.6861    0.8617   -1.0825 O.3       1 <0>        -0.5263
     33 O7         -3.5943   -2.4012    0.1840 O.3       1 <0>        -0.5234
     34 O8          2.3625    1.1154   -0.0145 O.3       1 <0>        -0.4941
     35 O9         -0.0231    5.2207    0.0308 O.3       1 <0>        -0.4846
     36 H6         -4.0075   11.2331    0.1027 H         1 <0>         0.1204
     37 H7         -4.0174   10.0143   -2.0368 H         1 <0>         0.1210
     38 H8         -3.9985    7.5520   -2.0511 H         1 <0>         0.1206
     39 H9         -3.9690    7.5275    2.2136 H         1 <0>         0.1206
     40 H10        -3.9794    9.9898    2.2279 H         1 <0>         0.1212
     41 H11        -4.4851    5.5194   -0.8156 H         1 <0>         0.0776
     42 H12        -4.4684    5.5092    0.9642 H         1 <0>         0.0770
     43 H13        -2.0430    5.7154    0.8692 H         1 <0>         0.0963
     44 H14        -2.0168    5.7556   -0.8374 H         1 <0>         0.0912
     45 H15         2.1107    3.7161    0.0027 H         1 <0>         0.1426
     46 H16         0.0021   -0.0041    0.0020 H         1 <0>         0.1479
     47 H17        -1.5242   -1.9685   -3.5627 H         1 <0>         0.0655
     48 H18        -2.2663   -0.6621   -4.5172 H         1 <0>         0.0601
     49 H19         0.1167   -0.5006   -4.4892 H         1 <0>         0.3807
     50 H20        -4.5813   -2.8831   -2.3550 H         1 <0>         0.3785
     51 H21        -5.1304    1.2149   -0.2995 H         1 <0>         0.3883
     52 H22        -3.0707   -2.7363    0.9247 H         1 <0>         0.3817
     53 H23         2.6962    0.9262   -0.9022 H         1 <0>         0.4021
     54 H24        -0.0319    5.6190   -0.8503 H         1 <0>         0.3996
@<TRIPOS>BOND
     1    1    6 ar
     2    1    2 ar
     3    1   36 1
     4    2    3 ar
     5    2   37 1
     6    3    4 ar
     7    3   38 1
     8    4    5 ar
     9    4    7 1
    10    5    6 ar
    11    5   39 1
    12    6   40 1
    13    7    8 1
    14    7   41 1
    15    7   42 1
    16    8    9 1
    17    8   43 1
    18    8   44 1
    19    9   10 2
    20    9   11 1
    21   11   16 ar
    22   11   12 ar
    23   12   13 ar
    24   12   35 1
    25   13   14 ar
    26   13   45 1
    27   14   15 ar
    28   14   34 1
    29   15   16 ar
    30   15   46 1
    31   16   17 1
    32   17   18 1
    33   18   19 1
    34   18   28 1
    35   18   20 1
    36   20   21 1
    37   20   22 1
    38   20   33 1
    39   22   23 1
    40   22   24 1
    41   22   32 1
    42   24   25 1
    43   24   26 1
    44   24   31 1
    45   26   27 1
    46   26   28 1
    47   26   29 1
    48   29   30 1
    49   29   47 1
    50   29   48 1
    51   30   49 1
    52   31   50 1
    53   32   51 1
    54   33   52 1
    55   34   53 1
    56   35   54 1
@<TRIPOS>MOLECULE
ZINC13424694
   54    56     0     0     0
SMALL
USER_CHARGES
1-[2,4-dihydroxy-6-[(2S,3S,4R,5S,6R)-3,4,5-trihydroxy-6-(hydroxymethyl)tetrahydropyran-2-yl]oxy-phenyl]-3-phenyl-propan-1-one
@<TRIPOS>ATOM
      1 C1          1.1709    2.0855    0.0021 C.ar      1 <0>        -0.1246
      2 C2         -0.0167    1.3781    0.0096 C.ar      1 <0>        -0.1172
      3 C3          0.0021   -0.0041    0.0020 C.ar      1 <0>        -0.1158
      4 C4          1.2084   -0.6789   -0.0132 C.ar      1 <0>        -0.0815
      5 C5          2.3961    0.0285   -0.0212 C.ar      1 <0>        -0.1183
      6 C6          2.3773    1.4107   -0.0145 C.ar      1 <0>        -0.1182
      7 C7          1.2289   -2.1857   -0.0205 C.3       1 <0>        -0.0763
      8 C8          1.2214   -2.6889   -1.4653 C.3       1 <0>        -0.1363
      9 C9          1.2419   -4.1957   -1.4726 C.2       1 <0>         0.4001
     10 O1          1.2606   -4.8075   -0.4245 O.2       1 <0>        -0.4435
     11 C10         1.2392   -4.9204   -2.7417 C.ar      1 <0>        -0.2426
     12 C11         1.2116   -4.2155   -3.9599 C.ar      1 <0>         0.2073
     13 C12         1.2142   -4.9097   -5.1547 C.ar      1 <0>        -0.2201
     14 C13         1.2331   -6.2991   -5.1561 C.ar      1 <0>         0.2002
     15 C14         1.2550   -7.0039   -3.9591 C.ar      1 <0>        -0.2368
     16 C15         1.2582   -6.3276   -2.7537 C.ar      1 <0>         0.2174
     17 O2          1.2801   -7.0177   -1.5865 O.3       1 <0>        -0.2640
     18 C16         1.2986   -8.4438   -1.6763 C.3       1 <0>         0.2189
     19 H1          2.1381   -8.7582   -2.2963 H         1 <0>         0.0812
     20 C17         1.4469   -9.0417   -0.2748 C.3       1 <0>         0.0665
     21 H2          2.3988   -8.7301    0.1553 H         1 <0>         0.0819
     22 C18         1.4054  -10.5697   -0.3730 C.3       1 <0>         0.0796
     23 H3          1.4543  -11.0009    0.6269 H         1 <0>         0.0866
     24 C19         0.0974  -10.9916   -1.0495 C.3       1 <0>         0.0916
     25 H4         -0.7472  -10.6852   -0.4323 H         1 <0>         0.0928
     26 C20         0.0012  -10.3184   -2.4211 C.3       1 <0>         0.1135
     27 H5          0.8237  -10.6574   -3.0509 H         1 <0>         0.0857
     28 O3          0.0771   -8.9004   -2.2609 O.3       1 <0>        -0.3701
     29 C21        -1.3304  -10.6870   -3.0781 C.3       1 <0>         0.0887
     30 O4         -1.3709  -10.1552   -4.4038 O.3       1 <0>        -0.5673
     31 O5          0.0801  -12.4112   -1.2120 O.3       1 <0>        -0.5479
     32 O6          2.5144  -11.0292   -1.1482 O.3       1 <0>        -0.5436
     33 O7          0.3762   -8.5860    0.5546 O.3       1 <0>        -0.5463
     34 O8          1.2306   -6.9719   -6.3343 O.3       1 <0>        -0.4928
     35 O9          1.1875   -2.8595   -3.9610 O.3       1 <0>        -0.4837
     36 H6          1.1563    3.1654    0.0077 H         1 <0>         0.1207
     37 H7         -0.9592    1.9054    0.0170 H         1 <0>         0.1216
     38 H8         -0.9258   -0.5567    0.0083 H         1 <0>         0.1211
     39 H9          3.3386   -0.4987   -0.0324 H         1 <0>         0.1206
     40 H10         3.3052    1.9634   -0.0205 H         1 <0>         0.1213
     41 H11         2.1288   -2.5393    0.4828 H         1 <0>         0.0772
     42 H12         0.3491   -2.5635    0.5004 H         1 <0>         0.0782
     43 H13         0.3958   -2.3645   -1.9269 H         1 <0>         0.0987
     44 H14         2.1012   -2.3111   -1.9862 H         1 <0>         0.0936
     45 H15         1.1972   -4.3707   -6.0904 H         1 <0>         0.1451
     46 H16         1.2700   -8.0837   -3.9705 H         1 <0>         0.1482
     47 H17        -1.4274  -11.7720   -3.1188 H         1 <0>         0.0763
     48 H18        -2.1513  -10.2705   -2.4943 H         1 <0>         0.0553
     49 H19        -2.1887  -10.3508   -4.8813 H         1 <0>         0.3830
     50 H20         0.1428  -12.9029   -0.3818 H         1 <0>         0.3860
     51 H21         3.3766  -10.7909   -0.7811 H         1 <0>         0.3844
     52 H22         0.3396   -7.6251    0.6572 H         1 <0>         0.3987
     53 H23         0.3466   -7.1793   -6.6669 H         1 <0>         0.4041
     54 H24         2.0637   -2.4506   -3.9721 H         1 <0>         0.4008
@<TRIPOS>BOND
     1    1    6 ar
     2    1    2 ar
     3    1   36 1
     4    2    3 ar
     5    2   37 1
     6    3    4 ar
     7    3   38 1
     8    4    5 ar
     9    4    7 1
    10    5    6 ar
    11    5   39 1
    12    6   40 1
    13    7    8 1
    14    7   41 1
    15    7   42 1
    16    8    9 1
    17    8   43 1
    18    8   44 1
    19    9   10 2
    20    9   11 1
    21   11   16 ar
    22   11   12 ar
    23   12   13 ar
    24   12   35 1
    25   13   14 ar
    26   13   45 1
    27   14   15 ar
    28   14   34 1
    29   15   16 ar
    30   15   46 1
    31   16   17 1
    32   17   18 1
    33   18   19 1
    34   18   28 1
    35   18   20 1
    36   20   21 1
    37   20   22 1
    38   20   33 1
    39   22   23 1
    40   22   24 1
    41   22   32 1
    42   24   25 1
    43   24   26 1
    44   24   31 1
    45   26   27 1
    46   26   28 1
    47   26   29 1
    48   29   30 1
    49   29   47 1
    50   29   48 1
    51   30   49 1
    52   31   50 1
    53   32   51 1
    54   33   52 1
    55   34   53 1
    56   35   54 1
@<TRIPOS>MOLECULE
ZINC22057177
   61    63     0     0     0
SMALL
USER_CHARGES
(2S,3S,4R,5S,6S)-3,4,5-trihydroxy-6-[4-[(1S)-1-(1-hydroxycyclohexyl)-2-methylamino-ethyl]phenoxy]tetrahydropyran-2-carboxylic acid
@<TRIPOS>ATOM
      1 C1         -5.1346    1.5362    2.6666 C.3       1 <0>        -0.0452
      2 N1         -4.4979    1.0072    1.4531 N.4       1 <0>        -0.5654
      3 C2         -3.1426    1.5498    1.2904 C.3       1 <0>        -0.0002
      4 C3         -2.5132    0.9772    0.0188 C.3       1 <0>        -0.0375
      5 H1         -2.5626   -0.1215    0.0391 H         1 <0>         0.1064
      6 C4         -1.0668    1.3933   -0.0572 C.ar      1 <0>        -0.1482
      7 C5         -0.0730    0.4326   -0.0890 C.ar      1 <0>        -0.0740
      8 C6          1.2534    0.8113   -0.1648 C.ar      1 <0>        -0.1555
      9 C7          1.5881    2.1571   -0.2032 C.ar      1 <0>         0.1576
     10 C8          0.5893    3.1193   -0.1654 C.ar      1 <0>        -0.1846
     11 C9         -0.7355    2.7353   -0.0896 C.ar      1 <0>        -0.0529
     12 O1          2.8921    2.5323   -0.2782 O.3       1 <0>        -0.2901
     13 C10         3.1626    3.9350   -0.3141 C.3       1 <0>         0.2650
     14 H2          2.6296    4.3969    0.5300 H         1 <0>         0.0801
     15 C11         4.6756    4.1645   -0.2720 C.3       1 <0>         0.1187
     16 H3          5.1236    3.7295    0.6336 H         1 <0>         0.0772
     17 C12         4.9594    5.6664   -0.3715 C.3       1 <0>         0.0972
     18 H4          6.0383    5.8775   -0.3343 H         1 <0>         0.0691
     19 C13         4.3243    6.2109   -1.6547 C.3       1 <0>         0.0862
     20 H5          4.8124    5.8011   -2.5513 H         1 <0>         0.0635
     21 C14         2.8249    5.9025   -1.6434 C.3       1 <0>         0.0392
     22 H6          2.3209    6.3607   -0.7797 H         1 <0>         0.0670
     23 O2          2.6310    4.4922   -1.5179 O.3       1 <0>        -0.3673
     24 C15         2.2033    6.3827   -2.9295 C.2       1 <0>         0.4747
     25 O3          1.7298    5.5870   -3.7057 O.co2     1 <0>        -0.6048
     26 O4          2.1756    7.6945   -3.2127 O.co2     1 <0>        -0.7466
     27 O5          4.5205    7.6248   -1.7219 O.3       1 <0>        -0.6072
     28 O6          4.4005    6.3346    0.7613 O.3       1 <0>        -0.5970
     29 O7          5.2921    3.4871   -1.3689 O.3       1 <0>        -0.5649
     30 C16        -3.2618    1.5091   -1.2049 C.3       1 <0>         0.1415
     31 C17        -4.6883    0.9558   -1.2104 C.3       1 <0>        -0.1449
     32 C18        -5.4369    1.4877   -2.4341 C.3       1 <0>        -0.1261
     33 C19        -4.7132    1.0445   -3.7072 C.3       1 <0>        -0.1248
     34 C20        -3.2867    1.5978   -3.7017 C.3       1 <0>        -0.1294
     35 C21        -2.5381    1.0659   -2.4780 C.3       1 <0>        -0.1419
     36 O8         -3.3047    2.9365   -1.1538 O.3       1 <0>        -0.5804
     37 H7         -6.1459    1.1145    2.7636 H         1 <0>         0.1176
     38 H8         -5.1993    2.6322    2.5987 H         1 <0>         0.1159
     39 H9         -4.5354    1.2580    3.5461 H         1 <0>         0.1132
     40 H10        -4.4332   -0.0888    1.5210 H         1 <0>         0.4362
     41 H11        -3.1933    2.6459    1.2129 H         1 <0>         0.1377
     42 H12        -2.5294    1.2717    2.1603 H         1 <0>         0.1246
     43 H13        -0.3340   -0.6150   -0.0590 H         1 <0>         0.1243
     44 H14         2.0291    0.0605   -0.1937 H         1 <0>         0.1320
     45 H15         0.8474    4.1676   -0.1948 H         1 <0>         0.1344
     46 H16        -1.5134    3.4840   -0.0605 H         1 <0>         0.1364
     47 H17         4.1306    8.1941   -2.5786 H         1 <0>         0.4349
     48 H18         4.5049    7.4248    0.8636 H         1 <0>         0.4239
     49 H19         6.3826    3.5380   -1.5040 H         1 <0>         0.4080
     50 H20        -4.6552   -0.1430   -1.2498 H         1 <0>         0.0960
     51 H21        -5.2087    1.2744   -0.2951 H         1 <0>         0.0578
     52 H22        -6.4625    1.0900   -2.4380 H         1 <0>         0.0758
     53 H23        -5.4699    2.5865   -2.3947 H         1 <0>         0.0748
     54 H24        -4.6802   -0.0543   -3.7466 H         1 <0>         0.0670
     55 H25        -5.2515    1.4269   -4.5870 H         1 <0>         0.0742
     56 H26        -2.7663    1.2792   -4.6170 H         1 <0>         0.0767
     57 H27        -3.3197    2.6966   -3.6623 H         1 <0>         0.0701
     58 H28        -1.5125    1.4636   -2.4741 H         1 <0>         0.0914
     59 H29        -2.5051   -0.0329   -2.5174 H         1 <0>         0.0711
     60 H30        -3.8055    3.5007   -1.9543 H         1 <0>         0.4188
     61 H31        -5.0971    1.2854    0.5736 H         1 <0>         0.4327
@<TRIPOS>BOND
     1    1    2 1
     2    1   37 1
     3    1   38 1
     4    1   39 1
     5    2    3 1
     6    2   40 1
     7    2   61 1
     8    3    4 1
     9    3   41 1
    10    3   42 1
    11    4    5 1
    12    4    6 1
    13    4   30 1
    14    6   11 ar
    15    6    7 ar
    16    7    8 ar
    17    7   43 1
    18    8    9 ar
    19    8   44 1
    20    9   10 ar
    21    9   12 1
    22   10   11 ar
    23   10   45 1
    24   11   46 1
    25   12   13 1
    26   13   14 1
    27   13   23 1
    28   13   15 1
    29   15   16 1
    30   15   17 1
    31   15   29 1
    32   17   18 1
    33   17   19 1
    34   17   28 1
    35   19   20 1
    36   19   21 1
    37   19   27 1
    38   21   22 1
    39   21   23 1
    40   21   24 1
    41   24   25 2
    42   24   26 1
    43   27   47 1
    44   28   48 1
    45   29   49 1
    46   30   35 1
    47   30   31 1
    48   30   36 1
    49   31   32 1
    50   31   50 1
    51   31   51 1
    52   32   33 1
    53   32   52 1
    54   32   53 1
    55   33   34 1
    56   33   54 1
    57   33   55 1
    58   34   35 1
    59   34   56 1
    60   34   57 1
    61   35   58 1
    62   35   59 1
    63   36   60 1
@<TRIPOS>MOLECULE
ZINC40784830
   48    50     0     0     0
SMALL
USER_CHARGES

@<TRIPOS>ATOM
      1 C1         -0.0167    1.3784    0.0096 C.ar      1 <0>        -0.1554
      2 C2          1.1698    2.0883    0.0021 C.ar      1 <0>        -0.0790
      3 C3          2.3773    1.4175   -0.0134 C.ar      1 <0>        -0.1461
      4 C4          2.3989    0.0304   -0.0210 C.ar      1 <0>         0.1257
      5 C5          1.2070   -0.6796   -0.0130 C.ar      1 <0>        -0.2106
      6 C6          0.0021   -0.0041    0.0020 C.ar      1 <0>        -0.0795
      7 O1          3.5855   -0.6319   -0.0368 O.3       1 <0>        -0.2894
      8 C7          3.5315   -2.0598   -0.0438 C.3       1 <0>         0.0550
      9 C8          4.9322   -2.6155   -0.0612 C.2       1 <0>         0.5136
     10 O2          5.8831   -1.8627   -0.0670 O.2       1 <0>        -0.5171
     11 N1          5.1282   -3.9489   -0.0703 N.am      1 <0>        -0.5061
     12 N2          6.4304   -4.4654   -0.0865 N.pl3     1 <0>        -0.5089
     13 C9          6.6325   -5.8404   -0.0959 C.ar      1 <0>         0.4085
     14 C10         7.9255   -6.3667   -0.1062 C.ar      1 <0>         0.0159
     15 C11         8.0720   -7.7547   -0.1154 C.ar      1 <0>         0.4095
     16 N3          6.9817   -8.5181   -0.1140 N.ar      1 <0>        -0.5777
     17 C12         5.7787   -7.9807   -0.1042 C.ar      1 <0>         0.3401
     18 N4          5.5965   -6.6756   -0.0897 N.ar      1 <0>        -0.5775
     19 N5          9.3368   -8.3308   -0.1264 N.pl3     1 <0>        -0.5078
     20 N6          9.4714   -9.7252   -0.1355 N.am      1 <0>        -0.5057
     21 C13        10.6979  -10.2839   -0.1461 C.2       1 <0>         0.5534
     22 O3         11.6874   -9.5777   -0.1477 O.2       1 <0>        -0.5166
     23 C14        10.8398  -11.7547   -0.1558 C.ar      1 <0>        -0.1249
     24 C15         9.7054  -12.5688   -0.1598 C.ar      1 <0>        -0.0736
     25 C16         9.8448  -13.9407   -0.1688 C.ar      1 <0>        -0.1214
     26 C17        11.1056  -14.5121   -0.1739 C.ar      1 <0>        -0.0758
     27 C18        12.2340  -13.7130   -0.1700 C.ar      1 <0>        -0.1195
     28 C19        12.1095  -12.3371   -0.1668 C.ar      1 <0>         0.0177
     29 Cl1        13.5269  -11.3348   -0.1698 Cl        1 <0>        -0.0268
     30 N7          9.0482   -5.5226   -0.1077 N.pl3     1 <0>        -0.8746
     31 H1         -0.9596    1.9047    0.0260 H         1 <0>         0.1255
     32 H2          1.1525    3.1682    0.0080 H         1 <0>         0.1316
     33 H3          3.3038    1.9724   -0.0200 H         1 <0>         0.1331
     34 H4          1.2211   -1.7595   -0.0193 H         1 <0>         0.1287
     35 H5         -0.9260   -0.5563    0.0082 H         1 <0>         0.1269
     36 H6          3.0134   -2.4083    0.8497 H         1 <0>         0.1011
     37 H7          2.9951   -2.3988   -0.9302 H         1 <0>         0.1011
     38 H8          4.3676   -4.5509   -0.0657 H         1 <0>         0.4356
     39 H9          7.1909   -3.8634   -0.0911 H         1 <0>         0.4395
     40 H10         4.9155   -8.6298   -0.1033 H         1 <0>         0.2022
     41 H11        10.1264   -7.7673   -0.1276 H         1 <0>         0.4394
     42 H12         8.6818  -10.2887   -0.1343 H         1 <0>         0.4320
     43 H13         8.7209  -12.1249   -0.1555 H         1 <0>         0.1369
     44 H14         8.9679  -14.5710   -0.1716 H         1 <0>         0.1396
     45 H15        11.2083  -15.5871   -0.1806 H         1 <0>         0.1403
     46 H16        13.2147  -14.1654   -0.1737 H         1 <0>         0.1433
     47 H17         8.9310   -4.5598   -0.1016 H         1 <0>         0.3987
     48 H18         9.9406   -5.9026   -0.1150 H         1 <0>         0.3990
@<TRIPOS>BOND
     1    1    6 ar
     2    1    2 ar
     3    1   31 1
     4    2    3 ar
     5    2   32 1
     6    3    4 ar
     7    3   33 1
     8    4    5 ar
     9    4    7 1
    10    5    6 ar
    11    5   34 1
    12    6   35 1
    13    7    8 1
    14    8    9 1
    15    8   36 1
    16    8   37 1
    17    9   10 2
    18    9   11 am
    19   11   12 1
    20   11   38 1
    21   12   13 1
    22   12   39 1
    23   13   18 ar
    24   13   14 ar
    25   14   15 ar
    26   14   30 1
    27   15   16 ar
    28   15   19 1
    29   16   17 ar
    30   17   18 ar
    31   17   40 1
    32   19   20 1
    33   19   41 1
    34   20   21 am
    35   20   42 1
    36   21   22 2
    37   21   23 1
    38   23   28 ar
    39   23   24 ar
    40   24   25 ar
    41   24   43 1
    42   25   26 ar
    43   25   44 1
    44   26   27 ar
    45   26   45 1
    46   27   28 ar
    47   27   46 1
    48   28   29 1
    49   30   47 1
    50   30   48 1
@<TRIPOS>MOLECULE
ZINC59878806
   49    50     0     0     0
SMALL
USER_CHARGES

@<TRIPOS>ATOM
      1 C1         -0.0187    1.5258    0.0104 C.3       1 <0>        -0.1460
      2 C2          0.0021   -0.0041    0.0020 C.3       1 <0>        -0.1183
      3 H1          0.5123   -0.3556   -0.8948 H         1 <0>         0.1249
      4 C3          0.7309   -0.5033    1.2229 C.2       1 <0>         0.5412
      5 O1          0.1049   -0.8912    2.1865 O.2       1 <0>        -0.5169
      6 N1          2.0785   -0.5187    1.2440 N.am      1 <0>        -0.5180
      7 N2          2.7561   -0.9828    2.3790 N.am      1 <0>        -0.5217
      8 C4          4.1036   -0.9981    2.4000 C.2       1 <0>         0.5133
      9 O2          4.7296   -0.6102    1.4364 O.2       1 <0>        -0.5442
     10 C5          4.8324   -1.4974    3.6209 C.3       1 <0>        -0.1601
     11 S1         -1.6997   -0.6320    0.0149 S.3       1 <0>         0.1177
     12 C6         -2.3645   -0.0933   -1.5254 C.2       1 <0>         0.2178
     13 N3         -3.6092   -0.3225   -1.9571 N.2       1 <0>        -0.5122
     14 C7         -3.7724    0.2190   -3.1461 C.2       1 <0>         0.5625
     15 N4         -2.6115    0.8127   -3.4965 N.pl3     1 <0>        -0.5048
     16 N5         -1.7203    0.6023   -2.4320 N.2       1 <0>        -0.3213
     17 N6         -4.9289    0.1851   -3.9030 N.pl3     1 <0>        -0.5532
     18 N7         -6.0668   -0.4701   -3.4145 N.2       1 <0>        -0.1753
     19 C8         -7.1529   -0.5019   -4.1253 C.2       1 <0>         0.0982
     20 C9         -8.3500   -1.1911   -3.6114 C.ar      1 <0>        -0.0822
     21 C10        -9.5186   -1.2326   -4.3752 C.ar      1 <0>        -0.0791
     22 C11       -10.6353   -1.8792   -3.8884 C.ar      1 <0>        -0.1312
     23 C12       -10.6031   -2.4877   -2.6454 C.ar      1 <0>        -0.0830
     24 C13        -9.4526   -2.4535   -1.8799 C.ar      1 <0>        -0.1091
     25 C14        -8.3203   -1.8135   -2.3560 C.ar      1 <0>         0.1518
     26 O3         -7.1876   -1.7843   -1.6069 O.3       1 <0>        -0.4666
     27 C15        -9.4284   -3.1186   -0.5278 C.3       1 <0>        -0.0537
     28 C16        -9.7380   -2.1000    0.5387 C.2       1 <0>        -0.1470
     29 C17       -10.7199   -2.3102    1.3800 C.2       1 <0>        -0.1911
     30 H2          1.0039    1.9031    0.0027 H         1 <0>         0.0726
     31 H3         -0.5459    1.8868   -0.8726 H         1 <0>         0.0865
     32 H4         -0.5289    1.8773    0.9072 H         1 <0>         0.0770
     33 H5          2.5791   -0.2084    0.4733 H         1 <0>         0.4345
     34 H6          2.2554   -1.2930    3.1497 H         1 <0>         0.4343
     35 H7          4.1087   -1.8007    4.3774 H         1 <0>         0.0829
     36 H8          5.4537   -2.3509    3.3495 H         1 <0>         0.1050
     37 H9          5.4621   -0.7016    4.0189 H         1 <0>         0.1048
     38 H10        -4.9524    0.6149   -4.7723 H         1 <0>         0.3975
     39 H11        -7.1791   -0.0233   -5.0931 H         1 <0>         0.1215
     40 H12        -9.5477   -0.7589   -5.3453 H         1 <0>         0.1309
     41 H13       -11.5387   -1.9107   -4.4793 H         1 <0>         0.1302
     42 H14       -11.4820   -2.9916   -2.2713 H         1 <0>         0.1280
     43 H15        -7.1294   -1.0247   -1.0113 H         1 <0>         0.3916
     44 H16       -10.1750   -3.9123   -0.4999 H         1 <0>         0.0772
     45 H17        -8.4404   -3.5429   -0.3492 H         1 <0>         0.0925
     46 H18        -9.1504   -1.1966    0.6095 H         1 <0>         0.1067
     47 H19       -11.3076   -3.2136    1.3092 H         1 <0>         0.0969
     48 H20       -10.9418   -1.5802    2.1443 H         1 <0>         0.0983
     49 H21        -2.4302    1.2931   -4.3194 H         1 <0>         0.4385
@<TRIPOS>BOND
     1    1    2 1
     2    1   30 1
     3    1   31 1
     4    1   32 1
     5    2    3 1
     6    2    4 1
     7    2   11 1
     8    4    5 2
     9    4    6 am
    10    6    7 1
    11    6   33 1
    12    7    8 am
    13    7   34 1
    14    8    9 2
    15    8   10 1
    16   10   35 1
    17   10   36 1
    18   10   37 1
    19   11   12 1
    20   12   16 2
    21   12   13 1
    22   13   14 2
    23   14   15 1
    24   14   17 1
    25   15   16 1
    26   15   49 1
    27   17   18 1
    28   17   38 1
    29   18   19 2
    30   19   20 1
    31   19   39 1
    32   20   25 ar
    33   20   21 ar
    34   21   22 ar
    35   21   40 1
    36   22   23 ar
    37   22   41 1
    38   23   24 ar
    39   23   42 1
    40   24   25 ar
    41   24   27 1
    42   25   26 1
    43   26   43 1
    44   27   28 1
    45   27   44 1
    46   27   45 1
    47   28   29 2
    48   28   46 1
    49   29   47 1
    50   29   48 1
@<TRIPOS>MOLECULE
ZINC04222192
   65    68     0     0     0
SMALL
USER_CHARGES
4-amino-N-[(2,4-dimethoxyphenyl)-dioxo-BLAHyl]-butanamide
@<TRIPOS>ATOM
      1 C1          0.9300    5.5064  -18.5444 C.3       1 <0>         0.0249
      2 O1          1.1218    4.1291  -18.2152 O.3       1 <0>        -0.3140
      3 C2          0.5224    3.6762  -17.0830 C.ar      1 <0>         0.1772
      4 C3         -0.2355    4.5432  -16.3064 C.ar      1 <0>        -0.2422
      5 C4         -0.8507    4.0882  -15.1590 C.ar      1 <0>        -0.0227
      6 C5         -0.7039    2.7581  -14.7706 C.ar      1 <0>        -0.1284
      7 C6          0.0590    1.8856  -15.5532 C.ar      1 <0>         0.1838
      8 C7          0.6688    2.3495  -16.7064 C.ar      1 <0>        -0.2440
      9 O2          0.2017    0.5864  -15.1826 O.3       1 <0>        -0.3062
     10 C8          0.9950   -0.2466  -16.0304 C.3       1 <0>         0.0223
     11 C9         -1.3597    2.2677  -13.5341 C.ar      1 <0>        -0.0337
     12 C10        -2.1336    1.1052  -13.5644 C.ar      1 <0>        -0.0408
     13 C11        -2.7319    0.6490  -12.4151 C.ar      1 <0>        -0.1445
     14 C12        -2.5806    1.3332  -11.2032 C.ar      1 <0>         0.1743
     15 C13        -1.8253    2.5041  -11.1681 C.ar      1 <0>        -0.1497
     16 C14        -1.2077    2.9609  -12.3440 C.ar      1 <0>        -0.0353
     17 C15        -1.6417    3.3182   -9.9606 C.2       1 <0>         0.5607
     18 O3         -1.6517    4.5284  -10.0784 O.2       1 <0>        -0.5145
     19 N1         -1.4624    2.8011   -8.7276 N.am      1 <0>        -0.5930
     20 C16        -1.4211    3.7292   -7.5970 C.3       1 <0>         0.1168
     21 C17        -0.5406    3.1857   -6.4748 C.3       1 <0>        -0.1398
     22 C18        -1.0209    1.7710   -6.1283 C.3       1 <0>         0.1465
     23 H1         -2.0937    1.7839   -5.9361 H         1 <0>         0.1015
     24 C19        -0.7206    0.8598   -7.3154 C.3       1 <0>        -0.1165
     25 C20        -1.3471    1.3637   -8.5898 C.3       1 <0>         0.1335
     26 H2         -0.6765    1.0412   -9.3863 H         1 <0>         0.0972
     27 C21        -2.6644    0.7100   -8.8810 C.2       1 <0>         0.5093
     28 O4         -3.2448    0.1126   -7.9995 O.2       1 <0>        -0.5132
     29 N2         -3.2050    0.7775  -10.0979 N.am      1 <0>        -0.6563
     30 N3         -0.3123    1.2857   -4.9414 N.am      1 <0>        -0.7193
     31 C22        -0.7654    1.5984   -3.7112 C.2       1 <0>         0.5134
     32 O5         -1.7598    2.2816   -3.5868 O.2       1 <0>        -0.5349
     33 C23        -0.0366    1.0992   -2.4903 C.3       1 <0>        -0.1406
     34 C24        -0.7527    1.5927   -1.2315 C.3       1 <0>        -0.1399
     35 C25        -0.0127    1.0858    0.0080 C.3       1 <0>        -0.0046
     36 H3          1.4603    5.7363  -19.4685 H         1 <0>         0.1041
     37 H4         -0.1338    5.7034  -18.6773 H         1 <0>         0.0598
     38 H5          1.3171    6.1299  -17.7385 H         1 <0>         0.0594
     39 H6         -0.3465    5.5754  -16.6039 H         1 <0>         0.1351
     40 H7         -1.4428    4.7637  -14.5594 H         1 <0>         0.1371
     41 H8          1.2582    1.6779  -17.3131 H         1 <0>         0.1408
     42 H9          2.0070    0.1539  -16.0894 H         1 <0>         0.0593
     43 H10         1.0272   -1.2562  -15.6207 H         1 <0>         0.1036
     44 H11         0.5560   -0.2731  -17.0277 H         1 <0>         0.0603
     45 H12        -2.2617    0.5655  -14.4910 H         1 <0>         0.1387
     46 H13        -3.3278   -0.2512  -12.4469 H         1 <0>         0.1383
     47 H14        -0.6093    3.8596  -12.3204 H         1 <0>         0.1403
     48 H15        -2.4325    3.8775   -7.2185 H         1 <0>         0.0688
     49 H16        -1.0215    4.6855   -7.9343 H         1 <0>         0.1023
     50 H17        -0.6251    3.8275   -5.5979 H         1 <0>         0.0878
     51 H18         0.4974    3.1505   -6.8057 H         1 <0>         0.0775
     52 H19         0.3592    0.7996   -7.4514 H         1 <0>         0.0894
     53 H20        -1.1051   -0.1377   -7.1022 H         1 <0>         0.1024
     54 H21        -4.0958    0.4126  -10.2177 H         1 <0>         0.4160
     55 H22         0.4830    0.7393   -5.0409 H         1 <0>         0.4039
     56 H23         0.9860    1.4765   -2.4981 H         1 <0>         0.1060
     57 H24        -0.0218    0.0093   -2.4963 H         1 <0>         0.1063
     58 H25        -1.7753    1.2154   -1.2238 H         1 <0>         0.0968
     59 H26        -0.7675    2.6825   -1.2255 H         1 <0>         0.0962
     60 H27         0.0021   -0.0041    0.0020 H         1 <0>         0.1359
     61 H28         1.0099    1.4631    0.0003 H         1 <0>         0.1329
     62 H29        -1.6689    1.2770    1.2158 H         1 <0>         0.4388
     63 H30        -0.2304    1.2378    2.0496 H         1 <0>         0.4410
     64 N4         -0.6978    1.5846    1.2135 N.4       1 <0>        -0.6467
     65 H31        -0.6715    2.6110    1.2163 H         1 <0>         0.4408
@<TRIPOS>BOND
     1    1    2 1
     2    1   36 1
     3    1   37 1
     4    1   38 1
     5    2    3 1
     6    3    8 ar
     7    3    4 ar
     8    4    5 ar
     9    4   39 1
    10    5    6 ar
    11    5   40 1
    12    6    7 ar
    13    6   11 1
    14    7    8 ar
    15    7    9 1
    16    8   41 1
    17    9   10 1
    18   10   42 1
    19   10   43 1
    20   10   44 1
    21   11   16 ar
    22   11   12 ar
    23   12   13 ar
    24   12   45 1
    25   13   14 ar
    26   13   46 1
    27   14   29 1
    28   14   15 ar
    29   15   16 ar
    30   15   17 1
    31   16   47 1
    32   17   18 2
    33   17   19 am
    34   19   25 1
    35   19   20 1
    36   20   21 1
    37   20   48 1
    38   20   49 1
    39   21   22 1
    40   21   50 1
    41   21   51 1
    42   22   23 1
    43   22   24 1
    44   22   30 1
    45   24   25 1
    46   24   52 1
    47   24   53 1
    48   25   26 1
    49   25   27 1
    50   27   28 2
    51   27   29 am
    52   29   54 1
    53   30   31 am
    54   30   55 1
    55   31   32 2
    56   31   33 1
    57   33   34 1
    58   33   56 1
    59   33   57 1
    60   34   35 1
    61   34   58 1
    62   34   59 1
    63   35   60 1
    64   35   61 1
    65   35   64 1
    66   62   64 1
    67   63   64 1
    68   64   65 1
@<TRIPOS>MOLECULE
ZINC20807667
   58    60     0     0     0
SMALL
USER_CHARGES
2-[[2-[4-[2-[(2,3-dimethylphenyl)amino]-2-oxo-ethyl]piperazin-1-yl]acetyl]amino]thiophene-3-carboxamide
@<TRIPOS>ATOM
      1 C1          9.3258   12.6826    1.3356 C.3       1 <0>        -0.1214
      2 C2          8.2094   11.8561    0.7509 C.ar      1 <0>        -0.0658
      3 C3          7.1764   12.4739    0.0697 C.ar      1 <0>        -0.1151
      4 C4          6.1504   11.7193   -0.4682 C.ar      1 <0>        -0.1038
      5 C5          6.1546   10.3451   -0.3275 C.ar      1 <0>        -0.1196
      6 C6          7.1905    9.7218    0.3554 C.ar      1 <0>         0.1255
      7 C7          8.2166   10.4833    0.8999 C.ar      1 <0>        -0.1008
      8 C8          9.3394    9.8115    1.6476 C.3       1 <0>        -0.1152
      9 N1          7.1978    8.3301    0.4996 N.am      1 <0>        -0.6549
     10 C9          6.0355    7.6596    0.6264 C.2       1 <0>         0.5007
     11 O1          4.9809    8.2518    0.5365 O.2       1 <0>        -0.5183
     12 C10         6.0463    6.1741    0.8797 C.3       1 <0>        -0.0260
     13 N2          4.6719    5.6582    0.8259 N.4       1 <0>        -0.3912
     14 C11         4.1234    5.7616   -0.5335 C.3       1 <0>        -0.0024
     15 C12         2.6676    5.2893   -0.5306 C.3       1 <0>         0.0297
     16 N3          2.6058    3.9037   -0.0448 N.3       1 <0>        -0.5227
     17 C13         3.1543    3.8004    1.3146 C.3       1 <0>         0.0167
     18 C14         4.6101    4.2726    1.3117 C.3       1 <0>         0.0057
     19 C15         1.2314    3.3878   -0.0985 C.3       1 <0>         0.0397
     20 C16         1.2407    1.9048    0.1690 C.2       1 <0>         0.5076
     21 O2          2.2890    1.3338    0.3833 O.2       1 <0>        -0.4957
     22 N4          0.0840    1.2130    0.1701 N.am      1 <0>        -0.6231
     23 C17         0.0926   -0.1516    0.4162 C.2       1 <0>         0.1153
     24 C18        -0.9859   -1.0270    0.4644 C.2       1 <0>        -0.2546
     25 C19        -0.6861   -2.4120    0.7391 C.2       1 <0>        -0.1075
     26 C20         0.6053   -2.7336    0.9351 C.2       1 <0>        -0.2308
     27 S1          1.4486   -1.1767    0.7456 S.3       1 <0>         0.2153
     28 C21        -2.3604   -0.5669    0.2430 C.2       1 <0>         0.5926
     29 O3         -2.5789    0.6076    0.0101 O.2       1 <0>        -0.5775
     30 N5         -3.3818   -1.4445    0.2973 N.am      1 <0>        -0.8678
     31 H1          9.1482   13.7459    1.1167 H         1 <0>         0.0717
     32 H2         10.2832   12.3718    0.8920 H         1 <0>         0.0750
     33 H3          9.3608   12.5333    2.4249 H         1 <0>         0.0740
     34 H4          7.1710   13.5481   -0.0419 H         1 <0>         0.1295
     35 H5          5.3449   12.2047   -0.9993 H         1 <0>         0.1300
     36 H6          5.3532    9.7561   -0.7485 H         1 <0>         0.1366
     37 H7          9.1720    8.7244    1.6612 H         1 <0>         0.0552
     38 H8          9.3710   10.1906    2.6797 H         1 <0>         0.0788
     39 H9         10.2947   10.0292    1.1476 H         1 <0>         0.0791
     40 H10         8.1521    7.7832    0.5095 H         1 <0>         0.4437
     41 H11         6.6554    5.6756    0.1113 H         1 <0>         0.1592
     42 H12         6.4742    5.9746    1.8732 H         1 <0>         0.1648
     43 H13         4.1697    6.8082   -0.8689 H         1 <0>         0.1450
     44 H14         4.7130    5.1315   -1.2157 H         1 <0>         0.1352
     45 H15         2.0732    5.9374    0.1302 H         1 <0>         0.0674
     46 H16         2.2640    5.3389   -1.5527 H         1 <0>         0.1274
     47 H17         2.5648    4.4306    1.9967 H         1 <0>         0.0608
     48 H18         3.1079    2.7539    1.6502 H         1 <0>         0.1417
     49 H19         5.2052    3.6254    0.6507 H         1 <0>         0.1410
     50 H20         5.0145    4.2239    2.3335 H         1 <0>         0.1389
     51 H21         0.6198    3.8939    0.6629 H         1 <0>         0.0869
     52 H22         0.8071    3.5779   -1.0954 H         1 <0>         0.1277
     53 H23        -0.8668    1.7309   -0.0242 H         1 <0>         0.4641
     54 H24        -1.4659   -3.1575    0.7900 H         1 <0>         0.1425
     55 H25         1.0287   -3.7028    1.1541 H         1 <0>         0.1913
     56 H26        -4.4129   -1.0993    0.1312 H         1 <0>         0.4286
     57 H27        -3.1843   -2.5060    0.5077 H         1 <0>         0.4223
     58 H28         4.0528    6.2791    1.4901 H         1 <0>         0.4474
@<TRIPOS>BOND
     1    1    2 1
     2    1   31 1
     3    1   32 1
     4    1   33 1
     5    2    7 ar
     6    2    3 ar
     7    3    4 ar
     8    3   34 1
     9    4    5 ar
    10    4   35 1
    11    5    6 ar
    12    5   36 1
    13    6    7 ar
    14    6    9 1
    15    7    8 1
    16    8   37 1
    17    8   38 1
    18    8   39 1
    19    9   10 am
    20    9   40 1
    21   10   11 2
    22   10   12 1
    23   12   13 1
    24   12   41 1
    25   12   42 1
    26   13   18 1
    27   13   14 1
    28   13   58 1
    29   14   15 1
    30   14   43 1
    31   14   44 1
    32   15   16 1
    33   15   45 1
    34   15   46 1
    35   16   17 1
    36   16   19 1
    37   17   18 1
    38   17   47 1
    39   17   48 1
    40   18   49 1
    41   18   50 1
    42   19   20 1
    43   19   51 1
    44   19   52 1
    45   20   21 2
    46   20   22 am
    47   22   23 1
    48   22   53 1
    49   23   27 1
    50   23   24 2
    51   24   25 1
    52   24   28 1
    53   25   26 2
    54   25   54 1
    55   26   27 1
    56   26   55 1
    57   28   29 2
    58   28   30 am
    59   30   56 1
    60   30   57 1
@<TRIPOS>MOLECULE
ZINC43217639
   55    58     0     0     0
SMALL
USER_CHARGES

@<TRIPOS>ATOM
      1 C1         -0.0165    1.3620    0.0095 C.ar      1 <0>        -0.1173
      2 C2          1.1697    2.0834    0.0021 C.ar      1 <0>        -0.0928
      3 C3          2.3856    1.4362   -0.0134 C.ar      1 <0>        -0.1099
      4 C4          2.4281    0.0456   -0.0212 C.ar      1 <0>         0.0993
      5 C5          1.2234   -0.6807   -0.0132 C.ar      1 <0>        -0.1172
      6 C6          0.0021   -0.0041    0.0020 C.ar      1 <0>        -0.1158
      7 C7          1.6036   -2.0953   -0.0245 C.2       1 <0>        -0.2422
      8 C8          2.9451   -2.1410   -0.0380 C.2       1 <0>         0.1102
      9 N1          3.4551   -0.8713   -0.0363 N.pl3     1 <0>        -0.5831
     10 H1          4.3995   -0.6501   -0.0442 H         1 <0>         0.4274
     11 C9          0.6664   -3.2754   -0.0210 C.3       1 <0>        -0.0558
     12 C10         0.2361   -3.5891   -1.4554 C.3       1 <0>         0.1578
     13 H2          1.1200   -3.7379   -2.0756 H         1 <0>         0.1814
     14 C11        -0.6016   -4.8418   -1.4659 C.2       1 <0>         0.1176
     15 N2         -0.2018   -6.0108   -1.8684 N.2       1 <0>        -0.4015
     16 C12        -1.2306   -6.8902   -1.7285 C.2       1 <0>        -0.0620
     17 C13        -2.2838   -6.1960   -1.2178 C.2       1 <0>         0.0637
     18 O1         -1.8750   -4.9274   -1.0562 O.3       1 <0>        -0.1948
     19 C14        -1.2086   -8.3249   -2.0668 C.2       1 <0>         0.5949
     20 O2         -2.2011   -9.0059   -1.8932 O.2       1 <0>        -0.5189
     21 N3         -0.0885   -8.8818   -2.5686 N.am      1 <0>        -0.7086
     22 C15        -0.0667  -10.3075   -2.9049 C.3       1 <0>         0.1212
     23 C16         1.3127  -10.6817   -3.4509 C.3       1 <0>        -0.0964
     24 C17         1.3352  -12.1483   -3.7968 C.2       1 <0>        -0.1276
     25 C18         1.0923  -12.4866   -5.0224 C.2       1 <0>        -0.1393
     26 C19         1.0689  -13.9041   -5.5145 C.3       1 <0>        -0.0940
     27 C20         1.7709  -14.8219   -4.5113 C.3       1 <0>        -0.1227
     28 C21         1.2075  -14.5342   -3.1139 C.3       1 <0>        -0.1218
     29 C22         1.6436  -13.1252   -2.7003 C.3       1 <0>        -0.0832
     30 N4         -0.5518   -2.4687   -1.9863 N.4       1 <0>        -0.6371
     31 H3         -0.9613    1.8849    0.0259 H         1 <0>         0.1318
     32 H4          1.1388    3.1630    0.0081 H         1 <0>         0.1357
     33 H5          3.3028    2.0064   -0.0198 H         1 <0>         0.1300
     34 H6         -0.9246   -0.5587    0.0082 H         1 <0>         0.1153
     35 H7          3.5346   -3.0459   -0.0490 H         1 <0>         0.1810
     36 H8          1.1742   -4.1414    0.4036 H         1 <0>         0.1255
     37 H9         -0.2127   -3.0396    0.5787 H         1 <0>         0.1034
     38 H10        -3.2612   -6.5912   -0.9833 H         1 <0>         0.2484
     39 H11         0.7031   -8.3387   -2.7071 H         1 <0>         0.4084
     40 H12        -0.2750  -10.8950   -2.0107 H         1 <0>         0.0767
     41 H13        -0.8248  -10.5143   -3.6603 H         1 <0>         0.0760
     42 H14         1.5211  -10.0942   -4.3451 H         1 <0>         0.0747
     43 H15         2.0708  -10.4749   -2.6956 H         1 <0>         0.0767
     44 H16         0.8938  -11.6998   -5.7351 H         1 <0>         0.1027
     45 H17         0.0351  -14.2268   -5.6376 H         1 <0>         0.0759
     46 H18         1.5800  -13.9614   -6.4756 H         1 <0>         0.0732
     47 H19         1.5841  -15.8631   -4.7743 H         1 <0>         0.0672
     48 H20         2.8428  -14.6247   -4.5220 H         1 <0>         0.0646
     49 H21         0.1194  -14.5923   -3.1384 H         1 <0>         0.0657
     50 H22         1.6005  -15.2615   -2.4035 H         1 <0>         0.0674
     51 H23         2.7153  -13.1186   -2.5014 H         1 <0>         0.0739
     52 H24         1.1087  -12.8343   -1.7962 H         1 <0>         0.0699
     53 H25        -0.8356   -2.6756   -2.9322 H         1 <0>         0.4401
     54 H26        -1.3700   -2.3311   -1.4122 H         1 <0>         0.4372
     55 H27         0.0090   -1.6300   -1.9793 H         1 <0>         0.4472
@<TRIPOS>BOND
     1    1    6 ar
     2    1    2 ar
     3    1   31 1
     4    2    3 ar
     5    2   32 1
     6    3    4 ar
     7    3   33 1
     8    4    9 1
     9    4    5 ar
    10    5    6 ar
    11    5    7 1
    12    6   34 1
    13    7    8 2
    14    7   11 1
    15    8    9 1
    16    8   35 1
    17    9   10 1
    18   11   12 1
    19   11   36 1
    20   11   37 1
    21   12   13 1
    22   12   14 1
    23   12   30 1
    24   14   18 1
    25   14   15 2
    26   15   16 1
    27   16   17 2
    28   16   19 1
    29   17   18 1
    30   17   38 1
    31   19   20 2
    32   19   21 am
    33   21   22 1
    34   21   39 1
    35   22   23 1
    36   22   40 1
    37   22   41 1
    38   23   24 1
    39   23   42 1
    40   23   43 1
    41   24   29 1
    42   24   25 2
    43   25   26 1
    44   25   44 1
    45   26   27 1
    46   26   45 1
    47   26   46 1
    48   27   28 1
    49   27   47 1
    50   27   48 1
    51   28   29 1
    52   28   49 1
    53   28   50 1
    54   29   51 1
    55   29   52 1
    56   30   53 1
    57   30   54 1
    58   30   55 1
@<TRIPOS>MOLECULE
ZINC54038031
   51    53     0     0     0
SMALL
USER_CHARGES

@<TRIPOS>ATOM
      1 C1         -1.8128    1.4105    1.6086 C.3       1 <0>        -0.0478
      2 N1         -1.9527   -0.0161    1.2874 N.4       1 <0>        -0.3909
      3 C2         -3.3603   -0.4133    1.4247 C.3       1 <0>        -0.0563
      4 C3         -1.5094   -0.2530   -0.0930 C.3       1 <0>         0.1238
      5 H1         -2.1257    0.3298   -0.7775 H         1 <0>         0.1807
      6 C4         -1.6461   -1.7405   -0.4243 C.3       1 <0>         0.1130
      7 N2         -0.9232   -2.5317    0.5745 N.am      1 <0>        -0.7622
      8 C5         -0.9904   -3.8774    0.5455 C.2       1 <0>         0.7199
      9 O1         -1.6508   -4.4349   -0.3097 O.2       1 <0>        -0.5470
     10 N3         -0.3254   -4.6053    1.4644 N.am      1 <0>        -0.5192
     11 N4          0.4356   -3.9631    2.4499 N.am      1 <0>        -0.5273
     12 C6          1.1006   -4.6910    3.3688 C.2       1 <0>         0.6138
     13 O2          1.0401   -5.9048    3.3426 O.2       1 <0>        -0.5018
     14 C7          1.9032   -4.0136    4.4080 C.2       1 <0>        -0.0091
     15 C8          2.6533   -4.6406    5.4264 C.2       1 <0>        -0.1512
     16 C9          3.2207   -3.6223    6.1401 C.2       1 <0>         0.0773
     17 N5          2.8144   -2.4582    5.5573 N.pl3     1 <0>        -0.3699
     18 N6          2.0558   -2.7121    4.5523 N.2       1 <0>        -0.2594
     19 H2          3.0644   -1.5697    5.8555 H         1 <0>         0.4494
     20 C10         4.1054   -3.7570    7.3190 C.ar      1 <0>        -0.0389
     21 C11         4.4403   -5.0219    7.8022 C.ar      1 <0>        -0.0893
     22 C12         5.2655   -5.1409    8.9017 C.ar      1 <0>        -0.1103
     23 C13         5.7600   -4.0090    9.5248 C.ar      1 <0>        -0.1038
     24 C14         5.4311   -2.7518    9.0505 C.ar      1 <0>        -0.1123
     25 C15         4.6122   -2.6197    7.9478 C.ar      1 <0>        -0.1124
     26 C16        -0.0682    0.1632   -0.2362 C.2       1 <0>        -0.1131
     27 C17         0.4634    0.8078   -1.2904 C.2       1 <0>        -0.1230
     28 C18         1.8352    0.9974   -1.0054 C.2       1 <0>        -0.2104
     29 C19         2.0599    0.4572    0.2058 C.2       1 <0>         0.0119
     30 O3          0.9022   -0.0414    0.6695 O.3       1 <0>        -0.1860
     31 H3         -2.1417    1.5863    2.6328 H         1 <0>         0.1298
     32 H4         -0.7684    1.7052    1.5067 H         1 <0>         0.1228
     33 H5         -2.4247    1.9986    0.9245 H         1 <0>         0.1287
     34 H6         -3.9562    0.0922    0.6648 H         1 <0>         0.1319
     35 H7         -3.4475   -1.4922    1.2965 H         1 <0>         0.1275
     36 H8         -3.7215   -0.1346    2.4146 H         1 <0>         0.1326
     37 H9         -2.6997   -2.0193   -0.4156 H         1 <0>         0.1135
     38 H10        -1.2275   -1.9326   -1.4123 H         1 <0>         0.1203
     39 H11        -0.3963   -2.0870    1.2568 H         1 <0>         0.3878
     40 H12        -0.3737   -5.5739    1.4435 H         1 <0>         0.4532
     41 H13         0.4840   -2.9945    2.4708 H         1 <0>         0.4190
     42 H14         2.7566   -5.7008    5.6044 H         1 <0>         0.1725
     43 H15         4.0543   -5.9062    7.3171 H         1 <0>         0.1326
     44 H16         5.5256   -6.1197    9.2768 H         1 <0>         0.1337
     45 H17         6.4053   -4.1073   10.3852 H         1 <0>         0.1306
     46 H18         5.8197   -1.8719    9.5416 H         1 <0>         0.1303
     47 H19         4.3603   -1.6378    7.5753 H         1 <0>         0.1172
     48 H20        -0.0576    1.1201   -2.1834 H         1 <0>         0.1637
     49 H21         2.5631    1.4824   -1.6389 H         1 <0>         0.1646
     50 H22         3.0093    0.4323    0.7201 H         1 <0>         0.2180
     51 H23        -1.3863   -0.5605    1.9206 H         1 <0>         0.4213
@<TRIPOS>BOND
     1    1    2 1
     2    1   31 1
     3    1   32 1
     4    1   33 1
     5    2    3 1
     6    2    4 1
     7    2   51 1
     8    3   34 1
     9    3   35 1
    10    3   36 1
    11    4    5 1
    12    4    6 1
    13    4   26 1
    14    6    7 1
    15    6   37 1
    16    6   38 1
    17    7    8 am
    18    7   39 1
    19    8    9 2
    20    8   10 am
    21   10   11 1
    22   10   40 1
    23   11   12 am
    24   11   41 1
    25   12   13 2
    26   12   14 1
    27   14   18 2
    28   14   15 1
    29   15   42 1
    30   15   16 2
    31   16   20 1
    32   16   17 1
    33   17   18 1
    34   17   19 1
    35   20   25 ar
    36   20   21 ar
    37   21   22 ar
    38   21   43 1
    39   22   23 ar
    40   22   44 1
    41   23   24 ar
    42   23   45 1
    43   24   25 ar
    44   24   46 1
    45   25   47 1
    46   26   30 1
    47   26   27 2
    48   27   28 1
    49   27   48 1
    50   28   29 2
    51   28   49 1
    52   29   30 1
    53   29   50 1
@<TRIPOS>MOLECULE
ZINC66246058
   47    48     0     0     0
SMALL
USER_CHARGES

@<TRIPOS>ATOM
      1 C1         -1.2653    1.1831    0.1820 C.3       1 <0>        -0.1177
      2 C2         -0.5844   -0.1578    0.0846 C.ar      1 <0>        -0.0990
      3 C3         -0.5697   -0.8400   -1.1164 C.ar      1 <0>        -0.0734
      4 C4          0.0548   -2.0712   -1.2063 C.ar      1 <0>        -0.0943
      5 C5          0.6662   -2.6227   -0.0941 C.ar      1 <0>        -0.0785
      6 C6          0.6548   -1.9448    1.1089 C.ar      1 <0>        -0.1089
      7 C7          0.0336   -0.7060    1.2006 C.ar      1 <0>         0.1446
      8 N1          0.0256   -0.0140    2.4172 N.am      1 <0>        -0.6632
      9 C8         -0.0559   -0.6935    3.5783 C.2       1 <0>         0.5204
     10 O1         -0.0400   -1.9062    3.5737 O.2       1 <0>        -0.5150
     11 C9         -0.1667    0.0537    4.8823 C.3       1 <0>        -0.1559
     12 C10        -0.2437   -0.9460    6.0380 C.3       1 <0>         0.1124
     13 N2         -0.3514   -0.2196    7.3057 N.pl3     1 <0>        -0.6996
     14 C11        -0.4345   -0.9127    8.4901 C.cat     1 <0>         0.7345
     15 N3         -0.5304   -0.2664    9.6180 N.pl3     1 <0>        -0.6500
     16 C12        -0.6189   -1.0049   10.8801 C.3       1 <0>         0.0737
     17 C13        -0.7219   -0.0164   12.0433 C.3       1 <0>         0.0661
     18 H1          0.1075    0.6897   12.0028 H         1 <0>         0.1007
     19 C14        -0.6940   -0.7808   13.3843 C.3       1 <0>        -0.1487
     20 C15        -1.7346    0.0014   14.2312 C.3       1 <0>        -0.1574
     21 C16        -2.7562    0.4082   13.1396 C.3       1 <0>         0.0477
     22 O2         -1.9657    0.6904   11.9717 O.3       1 <0>        -0.3789
     23 N4         -0.4166   -2.2874    8.4849 N.pl3     1 <0>        -0.8113
     24 Br1         0.0723   -3.0024   -2.8520 Br        1 <0>        -0.0386
     25 H2         -0.5503    1.9716   -0.0529 H         1 <0>         0.0780
     26 H3         -2.0942    1.2219   -0.5248 H         1 <0>         0.0787
     27 H4         -1.6439    1.3257    1.1941 H         1 <0>         0.0645
     28 H5         -1.0464   -0.4120   -1.9858 H         1 <0>         0.1404
     29 H6          1.1523   -3.5843   -0.1669 H         1 <0>         0.1390
     30 H7          1.1318   -2.3758    1.9767 H         1 <0>         0.1472
     31 H8          0.0787    0.9545    2.4246 H         1 <0>         0.4159
     32 H9          0.7079    0.6914    5.0112 H         1 <0>         0.1166
     33 H10        -1.0666    0.6687    4.8734 H         1 <0>         0.1167
     34 H11        -1.1183   -1.5836    5.9091 H         1 <0>         0.1011
     35 H12         0.6562   -1.5610    6.0469 H         1 <0>         0.1013
     36 H13        -0.3641    0.7503    7.3093 H         1 <0>         0.4342
     37 H14        -1.5025   -1.6431   10.8664 H         1 <0>         0.1039
     38 H15         0.2720   -1.6205   11.0042 H         1 <0>         0.1100
     39 H16        -1.0052   -1.8164   13.2471 H         1 <0>         0.0861
     40 H17         0.2948   -0.7288   13.8399 H         1 <0>         0.0962
     41 H18        -2.1956   -0.6427   14.9801 H         1 <0>         0.0946
     42 H19        -1.2842    0.8792   14.6944 H         1 <0>         0.0866
     43 H20        -3.4454   -0.4127   12.9415 H         1 <0>         0.0679
     44 H21        -3.3052    1.2980   13.4479 H         1 <0>         0.0966
     45 H22        -0.3452   -2.7683    7.6455 H         1 <0>         0.4382
     46 H23        -0.4752   -2.7764    9.3206 H         1 <0>         0.4356
     47 H24        -0.5430    0.7035    9.6217 H         1 <0>         0.4410
@<TRIPOS>BOND
     1    1    2 1
     2    1   25 1
     3    1   26 1
     4    1   27 1
     5    2    7 ar
     6    2    3 ar
     7    3    4 ar
     8    3   28 1
     9    4    5 ar
    10    4   24 1
    11    5    6 ar
    12    5   29 1
    13    6    7 ar
    14    6   30 1
    15    7    8 1
    16    8    9 am
    17    8   31 1
    18    9   10 2
    19    9   11 1
    20   11   12 1
    21   11   32 1
    22   11   33 1
    23   12   13 1
    24   12   34 1
    25   12   35 1
    26   13   14 1
    27   13   36 1
    28   14   15 2
    29   14   23 1
    30   15   16 1
    31   15   47 1
    32   16   17 1
    33   16   37 1
    34   16   38 1
    35   17   18 1
    36   17   22 1
    37   17   19 1
    38   19   20 1
    39   19   39 1
    40   19   40 1
    41   20   21 1
    42   20   41 1
    43   20   42 1
    44   21   22 1
    45   21   43 1
    46   21   44 1
    47   23   45 1
    48   23   46 1
@<TRIPOS>MOLECULE
ZINC02798549
   51    54     0     0     0
SMALL
USER_CHARGES
1-(2-furylmethyl)-3-[1-[[4-(2-furylmethylthiocarbamoylamino)pyrazol-1-yl]methyl]pyrazol-4-yl]-thiourea
@<TRIPOS>ATOM
      1 C1         -1.0751    2.5535   -2.8330 C.2       1 <0>        -0.2197
      2 C2         -0.2039    2.2523   -1.7610 C.2       1 <0>        -0.1734
      3 C3         -0.8410    1.3621   -0.9794 C.2       1 <0>        -0.0517
      4 O1         -2.0428    1.1052   -1.5212 O.3       1 <0>        -0.1701
      5 C4         -2.1925    1.8294   -2.6423 C.2       1 <0>        -0.0206
      6 C5         -0.2962    0.7516    0.2861 C.3       1 <0>         0.2117
      7 N1         -0.6651    1.5888    1.4303 N.pl3     1 <0>        -0.6810
      8 C6         -0.2833    1.2365    2.6740 C.2       1 <0>         0.5599
      9 S1          0.6328   -0.1892    2.9165 S.2       1 <0>        -0.6094
     10 N2         -0.6227    2.0067    3.7266 N.pl3     1 <0>        -0.6007
     11 C7         -0.3064    1.5910    5.0341 C.2       1 <0>        -0.0103
     12 C8          0.8669    0.9329    5.4304 C.2       1 <0>         0.1058
     13 N3          0.7995    0.7106    6.7180 N.2       1 <0>        -0.2778
     14 N4         -0.4177    1.2178    7.1903 N.pl3     1 <0>        -0.3876
     15 C9         -1.0805    1.7611    6.1362 C.2       1 <0>         0.0649
     16 C10        -0.8897    1.1756    8.5766 C.3       1 <0>         0.4012
     17 N5         -0.8739   -0.2087    9.0559 N.pl3     1 <0>        -0.3878
     18 C11        -0.2388   -0.6627   10.1676 C.2       1 <0>         0.0620
     19 C12        -0.4705   -1.9973   10.2554 C.2       1 <0>        -0.0053
     20 C13        -1.2707   -2.3673    9.1647 C.2       1 <0>         0.1065
     21 N6         -1.5160   -1.2975    8.4524 N.2       1 <0>        -0.2705
     22 N7          0.0078   -2.8574   11.2623 N.pl3     1 <0>        -0.5998
     23 C14        -0.7488   -3.8913   11.6808 C.2       1 <0>         0.5597
     24 S2         -2.3419   -4.0830   11.0841 S.2       1 <0>        -0.6131
     25 N8         -0.2512   -4.7743   12.5692 N.pl3     1 <0>        -0.6808
     26 C15        -1.0736   -5.8981   13.0241 C.3       1 <0>         0.2119
     27 C16        -0.2893   -6.7291   14.0068 C.2       1 <0>        -0.0518
     28 C17        -0.2607   -6.5522   15.3399 C.2       1 <0>        -0.1737
     29 C18         0.5954   -7.5464   15.8667 C.2       1 <0>        -0.2198
     30 C19         1.0387   -8.2714   14.8240 C.2       1 <0>        -0.0203
     31 O2          0.4950   -7.7754   13.7005 O.3       1 <0>        -0.1698
     32 H1         -0.8809    3.2346   -3.6483 H         1 <0>         0.1531
     33 H2          0.7835    2.6593   -1.6003 H         1 <0>         0.1531
     34 H3         -3.0607    1.8267   -3.2847 H         1 <0>         0.2074
     35 H4         -0.7136   -0.2468    0.4168 H         1 <0>         0.1069
     36 H5          0.7898    0.6855    0.2194 H         1 <0>         0.1207
     37 H6         -1.1842    2.3966    1.2929 H         1 <0>         0.4006
     38 H7         -1.0848    2.8475    3.5834 H         1 <0>         0.4057
     39 H8          1.6864    0.6571    4.7833 H         1 <0>         0.2087
     40 H9         -2.0484    2.2390    6.1686 H         1 <0>         0.1797
     41 H10        -0.2361    1.7840    9.2016 H         1 <0>         0.1217
     42 H11        -1.9063    1.5657    8.6263 H         1 <0>         0.1219
     43 H12         0.3443   -0.0696   10.8566 H         1 <0>         0.1796
     44 H13        -1.6279   -3.3640    8.9519 H         1 <0>         0.2040
     45 H14         0.8818   -2.7059   11.6548 H         1 <0>         0.4063
     46 H15         0.6515   -4.6657   12.9073 H         1 <0>         0.4009
     47 H16        -1.9736   -5.5176   13.5070 H         1 <0>         0.1203
     48 H17        -1.3526   -6.5137   12.1690 H         1 <0>         0.1075
     49 H18        -0.7896   -5.7955   15.9003 H         1 <0>         0.1528
     50 H19         0.8457   -7.6951   16.9067 H         1 <0>         0.1530
     51 H20         1.7133   -9.1129   14.8810 H         1 <0>         0.2075
@<TRIPOS>BOND
     1    1    5 2
     2    1    2 1
     3    1   32 1
     4    2    3 2
     5    2   33 1
     6    3    4 1
     7    3    6 1
     8    4    5 1
     9    5   34 1
    10    6    7 1
    11    6   35 1
    12    6   36 1
    13    7    8 1
    14    7   37 1
    15    8    9 2
    16    8   10 1
    17   10   11 1
    18   10   38 1
    19   11   15 2
    20   11   12 1
    21   12   13 2
    22   12   39 1
    23   13   14 1
    24   14   15 1
    25   14   16 1
    26   15   40 1
    27   16   17 1
    28   16   41 1
    29   16   42 1
    30   17   21 1
    31   17   18 1
    32   18   19 2
    33   18   43 1
    34   19   20 1
    35   19   22 1
    36   20   21 2
    37   20   44 1
    38   22   23 1
    39   22   45 1
    40   23   24 2
    41   23   25 1
    42   25   26 1
    43   25   46 1
    44   26   27 1
    45   26   47 1
    46   26   48 1
    47   27   31 1
    48   27   28 2
    49   28   29 1
    50   28   49 1
    51   29   30 2
    52   29   50 1
    53   30   31 1
    54   30   51 1
@<TRIPOS>MOLECULE
ZINC12636382
   68    71     0     0     0
SMALL
USER_CHARGES
N-[(2R,3S,4S,5R,6R)-4,5-dihydroxy-6-(hydroxymethyl)-2-[[5-methyl-1-[2-(2-methylphenoxy)ethyl]-2-oxo-indolin-3-ylidene]amino]oxy-tetrahydropyran-3-yl]acetamide
@<TRIPOS>ATOM
      1 C1          6.0784    5.1943    0.7346 C.3       1 <0>        -0.1106
      2 C2          6.1219    5.2955   -0.7684 C.ar      1 <0>        -0.1158
      3 C3          7.2335    5.8342   -1.3935 C.ar      1 <0>        -0.0639
      4 C4          7.2874    5.9332   -2.7695 C.ar      1 <0>        -0.1418
      5 C5          6.2208    5.4900   -3.5438 C.ar      1 <0>         0.1614
      6 C6          5.0986    4.9459   -2.9071 C.ar      1 <0>        -0.1505
      7 C7          5.0531    4.8505   -1.5211 C.ar      1 <0>        -0.0304
      8 C8          4.1473    4.5710   -3.9808 C.2       1 <0>         0.1207
      9 N1          2.9709    4.0292   -3.8460 N.2       1 <0>        -0.2313
     10 O1          2.4716    3.7331   -2.5544 O.3       1 <0>        -0.1969
     11 C9          1.1706    3.1420   -2.5556 C.3       1 <0>         0.2499
     12 H1          0.6101    3.4981   -3.4200 H         1 <0>         0.1255
     13 C10         0.4318    3.5311   -1.2725 C.3       1 <0>         0.1423
     14 H2          0.3758    4.6172   -1.1995 H         1 <0>         0.1147
     15 C11         1.1936    2.9755   -0.0654 C.3       1 <0>         0.1044
     16 H3          0.6436    3.2009    0.8482 H         1 <0>         0.0809
     17 C12         1.3334    1.4578   -0.2182 C.3       1 <0>         0.0511
     18 H4          1.9214    1.0610    0.6094 H         1 <0>         0.0718
     19 C13         2.0374    1.1487   -1.5420 C.3       1 <0>         0.0616
     20 H5          3.0411    1.5736   -1.5278 H         1 <0>         0.0864
     21 O2          1.2935    1.7197   -2.6203 O.3       1 <0>        -0.3563
     22 C14         2.1273   -0.3670   -1.7304 C.3       1 <0>         0.0809
     23 O3          2.8857   -0.6567   -2.9064 O.3       1 <0>        -0.5584
     24 O4          0.0373    0.8561   -0.2147 O.3       1 <0>        -0.5448
     25 O5          2.4911    3.5712   -0.0035 O.3       1 <0>        -0.5385
     26 N2         -0.9215    2.9706   -1.2976 N.am      1 <0>        -0.6970
     27 C15        -1.9062    3.5547   -0.5865 C.2       1 <0>         0.5189
     28 O6         -1.6719    4.5444    0.0743 O.2       1 <0>        -0.5465
     29 C16        -3.2983    2.9781   -0.6123 C.3       1 <0>        -0.1713
     30 C17         4.8338    4.9435   -5.2446 C.2       1 <0>         0.5910
     31 O7          4.3953    4.7968   -6.3687 O.2       1 <0>        -0.4495
     32 N3          6.0253    5.4749   -4.9217 N.am      1 <0>        -0.5414
     33 C18         6.9990    5.9697   -5.8979 C.3       1 <0>         0.1191
     34 C19         7.9341    4.8302   -6.3080 C.3       1 <0>         0.0367
     35 O8          7.1869    3.8249   -6.9957 O.3       1 <0>        -0.3000
     36 C20         7.8731    2.7355   -7.4308 C.ar      1 <0>         0.1271
     37 C21         9.2377    2.6362   -7.2007 C.ar      1 <0>        -0.2064
     38 C22         9.9329    1.5281   -7.6440 C.ar      1 <0>        -0.0880
     39 C23         9.2698    0.5178   -8.3163 C.ar      1 <0>        -0.1535
     40 C24         7.9102    0.6145   -8.5472 C.ar      1 <0>        -0.0845
     41 C25         7.2093    1.7183   -8.1008 C.ar      1 <0>        -0.1112
     42 C26         5.7260    1.8200   -8.3470 C.3       1 <0>        -0.1066
     43 H6          6.4927    4.2354    1.0463 H         1 <0>         0.0699
     44 H7          6.6656    6.0026    1.1703 H         1 <0>         0.0679
     45 H8          5.0456    5.2715    1.0742 H         1 <0>         0.0699
     46 H9          8.0662    6.1804   -0.7993 H         1 <0>         0.1342
     47 H10         8.1599    6.3557   -3.2455 H         1 <0>         0.1306
     48 H11         4.1854    4.4298   -1.0349 H         1 <0>         0.1531
     49 H12         2.6161   -0.8124   -0.8640 H         1 <0>         0.0607
     50 H13         1.1241   -0.7803   -1.8340 H         1 <0>         0.0564
     51 H14         2.9837   -1.6013   -3.0885 H         1 <0>         0.3824
     52 H15         0.0502   -0.1063   -0.3080 H         1 <0>         0.3785
     53 H16         3.0322    3.2594    0.7348 H         1 <0>         0.3807
     54 H17        -1.1089    2.1790   -1.8260 H         1 <0>         0.4122
     55 H18        -3.2746    1.9546   -0.2379 H         1 <0>         0.0915
     56 H19        -3.9528    3.5803    0.0178 H         1 <0>         0.0930
     57 H20        -3.6743    2.9821   -1.6353 H         1 <0>         0.0889
     58 H21         6.4743    6.3433   -6.7772 H         1 <0>         0.1085
     59 H22         7.5822    6.7759   -5.4529 H         1 <0>         0.1156
     60 H23         8.7125    5.2177   -6.9654 H         1 <0>         0.0820
     61 H24         8.3920    4.3979   -5.4184 H         1 <0>         0.0691
     62 H25         9.7559    3.4247   -6.6750 H         1 <0>         0.1254
     63 H26        10.9951    1.4504   -7.4651 H         1 <0>         0.1236
     64 H27         9.8151   -0.3481   -8.6618 H         1 <0>         0.1235
     65 H28         7.3947   -0.1757   -9.0728 H         1 <0>         0.1285
     66 H29         5.5493    2.3160   -9.3014 H         1 <0>         0.0683
     67 H30         5.2924    0.8203   -8.3713 H         1 <0>         0.0631
     68 H31         5.2635    2.3973   -7.5464 H         1 <0>         0.0733
@<TRIPOS>BOND
     1    1    2 1
     2    1   43 1
     3    1   44 1
     4    1   45 1
     5    2    7 ar
     6    2    3 ar
     7    3    4 ar
     8    3   46 1
     9    4    5 ar
    10    4   47 1
    11    5   32 1
    12    5    6 ar
    13    6    7 ar
    14    6    8 1
    15    7   48 1
    16    8    9 2
    17    8   30 1
    18    9   10 1
    19   10   11 1
    20   11   12 1
    21   11   21 1
    22   11   13 1
    23   13   14 1
    24   13   15 1
    25   13   26 1
    26   15   16 1
    27   15   17 1
    28   15   25 1
    29   17   18 1
    30   17   19 1
    31   17   24 1
    32   19   20 1
    33   19   21 1
    34   19   22 1
    35   22   23 1
    36   22   49 1
    37   22   50 1
    38   23   51 1
    39   24   52 1
    40   25   53 1
    41   26   27 am
    42   26   54 1
    43   27   28 2
    44   27   29 1
    45   29   55 1
    46   29   56 1
    47   29   57 1
    48   30   31 2
    49   30   32 am
    50   32   33 1
    51   33   34 1
    52   33   58 1
    53   33   59 1
    54   34   35 1
    55   34   60 1
    56   34   61 1
    57   35   36 1
    58   36   41 ar
    59   36   37 ar
    60   37   38 ar
    61   37   62 1
    62   38   39 ar
    63   38   63 1
    64   39   40 ar
    65   39   64 1
    66   40   41 ar
    67   40   65 1
    68   41   42 1
    69   42   66 1
    70   42   67 1
    71   42   68 1
@<TRIPOS>MOLECULE
ZINC20504778
   76    79     0     0     0
SMALL
USER_CHARGES
N-[(4S,4aR,7R,8R,8aS)-7-hydroxy-8-(hydroxymethyl)-4a,8-dimethyl-4-[2-(2-morpholinoethylamino)-2-oxo-ethyl]-4,5,6,7,8a,9-hexahydrobenzo[f][1,3]benzothiazol-2-yl]-2-methoxy-acetamide
@<TRIPOS>ATOM
      1 C1          0.2118   -1.7705    1.9159 C.3       1 <0>        -0.2139
      2 C2          0.5431   -2.1023    0.4596 C.3       1 <0>        -0.0429
      3 C3          1.0962   -3.5280    0.3630 C.3       1 <0>        -0.1110
      4 C4          0.0573   -4.5447    0.7875 C.3       1 <0>        -0.1140
      5 C5         -1.1606   -4.4256   -0.1336 C.3       1 <0>         0.1314
      6 H1         -0.9055   -4.6515   -1.1795 H         1 <0>         0.0468
      7 C6         -1.7499   -3.0240    0.0104 C.3       1 <0>        -0.0783
      8 C7         -0.7181   -1.9672   -0.3967 C.3       1 <0>        -0.0540
      9 H2         -0.4405   -2.1029   -1.4524 H         1 <0>         0.0846
     10 C8         -1.3449   -0.5810   -0.1490 C.3       1 <0>        -0.0319
     11 C9         -0.2751    0.4516   -0.1982 C.2       1 <0>        -0.2405
     12 C10         1.0684    0.2584   -0.1546 C.2       1 <0>         0.1011
     13 N1          1.8179    1.3568   -0.2118 N.2       1 <0>        -0.5096
     14 C11         1.2929    2.5606   -0.3066 C.2       1 <0>         0.2871
     15 S1         -0.4108    2.2148   -0.3227 S.3       1 <0>         0.1386
     16 N2          1.9354    3.7912   -0.3764 N.am      1 <0>        -0.6230
     17 C12         1.2123    4.9246   -0.4709 C.2       1 <0>         0.5144
     18 O1          0.0009    4.8708   -0.4952 O.2       1 <0>        -0.4825
     19 C13         1.9090    6.2588   -0.5466 C.3       1 <0>         0.0516
     20 O2          0.9349    7.3001   -0.6406 O.3       1 <0>        -0.3655
     21 C14         1.4934    8.6132   -0.7179 C.3       1 <0>         0.0268
     22 C15         1.6332   -1.1500   -0.0494 C.3       1 <0>         0.0188
     23 H3          1.9765   -1.4745   -1.0428 H         1 <0>         0.0933
     24 C16         2.8113   -1.1553    0.9267 C.3       1 <0>        -0.1303
     25 C17         3.9562   -0.3730    0.3365 C.2       1 <0>         0.5176
     26 O3          3.8412    0.1385   -0.7572 O.2       1 <0>        -0.5048
     27 N3          5.1080   -0.2417    1.0240 N.am      1 <0>        -0.7521
     28 C18         6.2209    0.5188    0.4503 C.3       1 <0>         0.1320
     29 C19         7.3991    0.5135    1.4264 C.3       1 <0>         0.0446
     30 N4          8.5151    1.2761    0.8511 N.3       1 <0>        -0.5329
     31 C20         9.0536    0.6040   -0.3404 C.3       1 <0>         0.0115
     32 C21        10.1718    1.4601   -0.9409 C.3       1 <0>         0.0612
     33 O4         11.1756    1.6888    0.0518 O.3       1 <0>        -0.3845
     34 C22        10.6859    2.3424    1.2259 C.3       1 <0>         0.0612
     35 C23         9.5728    1.4953    1.8483 C.3       1 <0>         0.0175
     36 C24        -2.9834   -2.8988   -0.8860 C.3       1 <0>        -0.1469
     37 C25        -2.1581   -2.7978    1.4675 C.3       1 <0>         0.0540
     38 O5         -3.2355   -3.6749    1.8020 O.3       1 <0>        -0.5855
     39 O6         -2.1398   -5.3976    0.2386 O.3       1 <0>        -0.5801
     40 H4          1.1193   -1.8681    2.5298 H         1 <0>         0.0572
     41 H5         -0.5568   -2.4657    2.2846 H         1 <0>         0.1168
     42 H6         -0.1653   -0.7392    1.9803 H         1 <0>         0.0621
     43 H7          1.3901   -3.7376   -0.6761 H         1 <0>         0.0677
     44 H8          1.9736   -3.6262    1.0191 H         1 <0>         0.0733
     45 H9          0.4823   -5.5565    0.7123 H         1 <0>         0.0708
     46 H10        -0.2431   -4.3496    1.8275 H         1 <0>         0.0740
     47 H11        -2.0956   -0.3739   -0.9259 H         1 <0>         0.0807
     48 H12        -1.8271   -0.5680    0.8396 H         1 <0>         0.0904
     49 H13         3.0341    3.8400   -0.3545 H         1 <0>         0.4515
     50 H14         2.5175    6.4065    0.3578 H         1 <0>         0.0909
     51 H15         2.5588    6.2833   -1.4338 H         1 <0>         0.0915
     52 H16         0.6824    9.3531   -0.7874 H         1 <0>         0.0969
     53 H17         2.1345    8.6871   -1.6087 H         1 <0>         0.0480
     54 H18         2.0932    8.8101    0.1829 H         1 <0>         0.0477
     55 H19         2.5028   -0.6937    1.8763 H         1 <0>         0.0930
     56 H20         3.1312   -2.1917    1.1097 H         1 <0>         0.0949
     57 H21         5.2124   -0.7056    2.0159 H         1 <0>         0.4133
     58 H22         6.5294    0.0572   -0.4993 H         1 <0>         0.0612
     59 H23         5.9010    1.5552    0.2673 H         1 <0>         0.0705
     60 H24         7.0906    0.9751    2.3760 H         1 <0>         0.0822
     61 H25         7.7190   -0.5229    1.6094 H         1 <0>         0.0415
     62 H26         9.4548   -0.3801   -0.0564 H         1 <0>         0.0450
     63 H27         8.2513    0.4729   -1.0815 H         1 <0>         0.0912
     64 H28        10.6153    0.9343   -1.7993 H         1 <0>         0.1009
     65 H29         9.7575    2.4228   -1.2748 H         1 <0>         0.0617
     66 H30        11.5066    2.4613    1.9486 H         1 <0>         0.1009
     67 H31        10.2888    3.3321    0.9560 H         1 <0>         0.0613
     68 H32         9.1528    2.0205    2.7188 H         1 <0>         0.0884
     69 H33         9.9823    0.5256    2.1676 H         1 <0>         0.0449
     70 H34        -3.4098   -1.8900   -0.7841 H         1 <0>         0.0593
     71 H35        -3.7327   -3.6457   -0.5850 H         1 <0>         0.0693
     72 H36        -2.6945   -3.0707   -1.9334 H         1 <0>         0.0532
     73 H37        -1.3003   -3.0034    2.1247 H         1 <0>         0.0969
     74 H38        -2.4800   -1.7544    1.6004 H         1 <0>         0.0422
     75 H39        -3.6658   -3.6564    2.8142 H         1 <0>         0.3993
     76 H40        -3.0884   -5.4624   -0.3146 H         1 <0>         0.3996
@<TRIPOS>BOND
     1    1    2 1
     2    1   40 1
     3    1   41 1
     4    1   42 1
     5    2    8 1
     6    2   22 1
     7    2    3 1
     8    3    4 1
     9    3   43 1
    10    3   44 1
    11    4    5 1
    12    4   45 1
    13    4   46 1
    14    5    6 1
    15    5    7 1
    16    5   39 1
    17    7    8 1
    18    7   36 1
    19    7   37 1
    20    8    9 1
    21    8   10 1
    22   10   11 1
    23   10   47 1
    24   10   48 1
    25   11   15 1
    26   11   12 2
    27   12   13 1
    28   12   22 1
    29   13   14 2
    30   14   15 1
    31   14   16 1
    32   16   17 am
    33   16   49 1
    34   17   18 2
    35   17   19 1
    36   19   20 1
    37   19   50 1
    38   19   51 1
    39   20   21 1
    40   21   52 1
    41   21   53 1
    42   21   54 1
    43   22   23 1
    44   22   24 1
    45   24   25 1
    46   24   55 1
    47   24   56 1
    48   25   26 2
    49   25   27 am
    50   27   28 1
    51   27   57 1
    52   28   29 1
    53   28   58 1
    54   28   59 1
    55   29   30 1
    56   29   60 1
    57   29   61 1
    58   30   35 1
    59   30   31 1
    60   31   32 1
    61   31   62 1
    62   31   63 1
    63   32   33 1
    64   32   64 1
    65   32   65 1
    66   33   34 1
    67   34   35 1
    68   34   66 1
    69   34   67 1
    70   35   68 1
    71   35   69 1
    72   36   70 1
    73   36   71 1
    74   36   72 1
    75   37   38 1
    76   37   73 1
    77   37   74 1
    78   38   75 1
    79   39   76 1
@<TRIPOS>MOLECULE
ZINC28629599
   52    55     0     0     0
SMALL
USER_CHARGES

@<TRIPOS>ATOM
      1 C1         -0.8073   -0.8443   -3.8334 C.2       1 <0>        -0.1653
      2 C2         -0.8607   -1.2815   -2.4900 C.2       1 <0>        -0.1737
      3 C3          0.0950   -2.2172   -2.3464 C.2       1 <0>        -0.0345
      4 O1          0.7208   -2.3690   -3.5250 O.3       1 <0>        -0.1595
      5 C4          0.1778   -1.5389   -4.4305 C.2       1 <0>        -0.0906
      6 C5          0.4100   -2.9678   -1.0782 C.3       1 <0>         0.4063
      7 H1          0.1692   -2.3440   -0.2174 H         1 <0>         0.1745
      8 N1          1.8351   -3.3064   -1.0523 N.pl3     1 <0>        -0.5909
      9 C6          2.3219   -4.4823   -1.7779 C.3       1 <0>         0.2906
     10 H2          3.3475   -4.3092   -2.1040 H         1 <0>         0.2270
     11 C7          2.2794   -5.6852   -0.8712 C.2       1 <0>        -0.0171
     12 C8          2.6623   -6.9321   -1.2000 C.2       1 <0>        -0.1682
     13 C9          2.4541   -7.7391   -0.0579 C.2       1 <0>        -0.2161
     14 C10         1.9565   -6.9371    0.9005 C.2       1 <0>        -0.0332
     15 O2          1.8582   -5.6930    0.4041 O.3       1 <0>        -0.1653
     16 O3          1.4925   -4.7156   -2.9180 O.3       1 <0>        -0.5576
     17 C11         2.6984   -2.5361   -0.3610 C.2       1 <0>         0.5815
     18 S1          2.1104   -1.2782    0.6404 S.2       1 <0>        -0.5510
     19 N2          4.0245   -2.7561   -0.4580 N.pl3     1 <0>        -0.6265
     20 C12         4.9179   -2.3355    0.6242 C.3       1 <0>         0.4296
     21 H3          5.3503   -1.3647    0.3818 H         1 <0>         0.1513
     22 C13         6.0206   -3.3496    0.7881 C.2       1 <0>        -0.0984
     23 C14         7.2670   -3.0929    1.2237 C.2       1 <0>        -0.1436
     24 C15         7.9632   -4.3234    1.2219 C.2       1 <0>        -0.2047
     25 C16         7.1004   -5.2585    0.7852 C.2       1 <0>        -0.0199
     26 O4          5.9237   -4.6639    0.5295 O.3       1 <0>        -0.1868
     27 O5          4.1771   -2.2363    1.8421 O.3       1 <0>        -0.4890
     28 C17         4.5726   -3.4159   -1.6457 C.3       1 <0>         0.3857
     29 H4          5.6035   -3.0954   -1.7962 H         1 <0>         0.1230
     30 C18         3.7496   -3.0436   -2.8520 C.2       1 <0>        -0.0865
     31 C19         3.6523   -3.7566   -3.9884 C.2       1 <0>        -0.1731
     32 C20         2.7823   -3.0444   -4.8455 C.2       1 <0>        -0.2805
     33 C21         2.3999   -1.9388   -4.1816 C.2       1 <0>         0.0396
     34 O6          2.9844   -1.9465   -2.9725 O.3       1 <0>        -0.1566
     35 O7          4.5361   -4.8327   -1.4630 O.3       1 <0>        -0.5480
     36 O8         -0.3655   -4.1670   -1.0293 O.3       1 <0>        -0.5346
     37 H5         -1.4393   -0.0990   -4.2933 H         1 <0>         0.1578
     38 H6         -1.5385   -0.9312   -1.7256 H         1 <0>         0.1563
     39 H7          0.4807   -1.4451   -5.4629 H         1 <0>         0.2072
     40 H8          3.0533   -7.2549   -2.1536 H         1 <0>         0.1475
     41 H9          2.6556   -8.7966    0.0283 H         1 <0>         0.1499
     42 H10         1.6862   -7.2411    1.9010 H         1 <0>         0.2031
     43 H11         1.7502   -4.2112   -3.7017 H         1 <0>         0.3946
     44 H12         7.6607   -2.1312    1.5180 H         1 <0>         0.1622
     45 H13         8.9906   -4.4821    1.5145 H         1 <0>         0.1601
     46 H14         7.3161   -6.3100    0.6651 H         1 <0>         0.2130
     47 H15         3.9372   -3.0902    2.2272 H         1 <0>         0.3743
     48 H16         4.1446   -4.6932   -4.2047 H         1 <0>         0.1640
     49 H17         2.4824   -3.3326   -5.8423 H         1 <0>         0.1623
     50 H18         1.7325   -1.1766   -4.5557 H         1 <0>         0.2344
     51 H19         5.0457   -5.1445   -0.7026 H         1 <0>         0.3876
     52 H20         0.0828   -4.9406   -1.3977 H         1 <0>         0.3875
@<TRIPOS>BOND
     1    1    5 2
     2    1    2 1
     3    1   37 1
     4    2    3 2
     5    2   38 1
     6    3    4 1
     7    3    6 1
     8    4    5 1
     9    5   39 1
    10    6    7 1
    11    6    8 1
    12    6   36 1
    13    8    9 1
    14    8   17 1
    15    9   10 1
    16    9   11 1
    17    9   16 1
    18   11   15 1
    19   11   12 2
    20   12   13 1
    21   12   40 1
    22   13   14 2
    23   13   41 1
    24   14   15 1
    25   14   42 1
    26   16   43 1
    27   17   18 2
    28   17   19 1
    29   19   20 1
    30   19   28 1
    31   20   21 1
    32   20   22 1
    33   20   27 1
    34   22   26 1
    35   22   23 2
    36   23   24 1
    37   23   44 1
    38   24   25 2
    39   24   45 1
    40   25   26 1
    41   25   46 1
    42   27   47 1
    43   28   29 1
    44   28   30 1
    45   28   35 1
    46   30   34 1
    47   30   31 2
    48   31   32 1
    49   31   48 1
    50   32   33 2
    51   32   49 1
    52   33   34 1
    53   33   50 1
    54   35   51 1
    55   36   52 1
@<TRIPOS>MOLECULE
ZINC15654968
   61    61     0     0     0
SMALL
USER_CHARGES

@<TRIPOS>ATOM
      1 C1         -0.0187    1.5258    0.0104 C.3       1 <0>        -0.1699
      2 C2          0.0021   -0.0041    0.0020 C.3       1 <0>         0.0741
      3 H1          0.5123   -0.3556   -0.8948 H         1 <0>         0.1201
      4 C3          0.7309   -0.5033    1.2229 C.2       1 <0>         0.5221
      5 O1          0.1352   -1.1365    2.0679 O.2       1 <0>        -0.4407
      6 N1          2.0451   -0.2458    1.3755 N.am      1 <0>        -0.6873
      7 C4          2.6969   -0.6923    2.4673 C.2       1 <0>         0.6958
      8 O2          2.0997   -1.3271    3.3144 O.2       1 <0>        -0.5260
      9 N2          4.0110   -0.4349    2.6199 N.am      1 <0>        -0.7322
     10 C5          4.7196   -0.9202    3.8068 C.3       1 <0>         0.1511
     11 C6          6.2084   -1.0682    3.4869 C.3       1 <0>        -0.1616
     12 C7          4.5408    0.0790    4.9516 C.3       1 <0>        -0.1666
     13 O3         -1.3386   -0.4987    0.0122 O.3       1 <0>        -0.3179
     14 C8         -1.9241   -0.7040   -1.1843 C.2       1 <0>         0.5113
     15 O4         -1.3128   -0.4695   -2.2082 O.2       1 <0>        -0.4706
     16 C9         -3.3043   -1.2126   -1.2509 C.ar      1 <0>        -0.1703
     17 C10        -4.0226   -1.4817   -0.0793 C.ar      1 <0>         0.0084
     18 C11        -5.3159   -1.9575   -0.1960 C.ar      1 <0>        -0.1946
     19 C12        -5.8601   -2.1530   -1.4537 C.ar      1 <0>         0.1568
     20 N3         -5.1684   -1.8944   -2.5456 N.ar      1 <0>        -0.4971
     21 C13        -3.9279   -1.4316   -2.4925 C.ar      1 <0>         0.1519
     22 S1         -3.0527   -1.0961   -3.9845 S.3       1 <0>         0.1136
     23 C14        -4.2359   -1.5207   -5.2923 C.3       1 <0>        -0.1502
     24 H2         -5.1615   -0.9660   -5.1390 H         1 <0>         0.1220
     25 C15        -4.5278   -3.0220   -5.2482 C.3       1 <0>        -0.1405
     26 C16        -3.6516   -1.1618   -6.6343 C.2       1 <0>         0.5410
     27 O5         -2.4489   -1.1059   -6.7764 O.2       1 <0>        -0.4466
     28 N4         -4.4660   -0.9029   -7.6764 N.am      1 <0>        -0.6867
     29 C17        -3.9435   -0.5818   -8.8766 C.2       1 <0>         0.6942
     30 O6         -2.7378   -0.5259   -9.0190 O.2       1 <0>        -0.5256
     31 N5         -4.7580   -0.3229   -9.9187 N.am      1 <0>        -0.7332
     32 C18        -4.1899    0.0260  -11.2232 C.3       1 <0>         0.1511
     33 C19        -5.1879   -0.3321  -12.3263 C.3       1 <0>        -0.1612
     34 C20        -3.8981    1.5273  -11.2673 C.3       1 <0>        -0.1667
     35 H3          1.0039    1.9031    0.0027 H         1 <0>         0.0835
     36 H4         -0.5459    1.8868   -0.8726 H         1 <0>         0.0834
     37 H5         -0.5289    1.8773    0.9072 H         1 <0>         0.0773
     38 H6          2.5217    0.2608    0.6994 H         1 <0>         0.4114
     39 H7          4.4877    0.0718    1.9438 H         1 <0>         0.3987
     40 H8          4.3135   -1.8876    4.1021 H         1 <0>         0.0916
     41 H9          6.6146   -0.1008    3.1915 H         1 <0>         0.0625
     42 H10         6.7356   -1.4293    4.3700 H         1 <0>         0.0771
     43 H11         6.3358   -1.7801    2.6713 H         1 <0>         0.0632
     44 H12         5.0680   -0.2821    5.8346 H         1 <0>         0.0692
     45 H13         4.9470    1.0465    4.6562 H         1 <0>         0.0575
     46 H14         3.4801    0.1845    5.1794 H         1 <0>         0.0617
     47 H15        -3.5774   -1.3219    0.8916 H         1 <0>         0.1579
     48 H16        -5.8971   -2.1754    0.6878 H         1 <0>         0.1494
     49 H17        -6.8703   -2.5246   -1.5420 H         1 <0>         0.1695
     50 H18        -3.6021   -3.5767   -5.4016 H         1 <0>         0.0705
     51 H19        -4.9504   -3.2816   -4.2776 H         1 <0>         0.0899
     52 H20        -5.2387   -3.2771   -6.0341 H         1 <0>         0.0673
     53 H21        -5.4283   -0.9475   -7.5627 H         1 <0>         0.4107
     54 H22        -5.7202   -0.3676   -9.8050 H         1 <0>         0.3980
     55 H23        -3.2643   -0.5287  -11.3766 H         1 <0>         0.0915
     56 H24        -6.1135    0.2226  -12.1729 H         1 <0>         0.0621
     57 H25        -4.7653   -0.0725  -13.2969 H         1 <0>         0.0769
     58 H26        -5.3958   -1.4016  -12.2949 H         1 <0>         0.0628
     59 H27        -4.8237    2.0820  -11.1140 H         1 <0>         0.0572
     60 H28        -3.1871    1.7824  -10.4815 H         1 <0>         0.0618
     61 H29        -3.4754    1.7869  -12.2379 H         1 <0>         0.0690
@<TRIPOS>BOND
     1    1    2 1
     2    1   35 1
     3    1   36 1
     4    1   37 1
     5    2    3 1
     6    2    4 1
     7    2   13 1
     8    4    5 2
     9    4    6 am
    10    6    7 am
    11    6   38 1
    12    7    8 2
    13    7    9 am
    14    9   10 1
    15    9   39 1
    16   10   11 1
    17   10   12 1
    18   10   40 1
    19   11   41 1
    20   11   42 1
    21   11   43 1
    22   12   44 1
    23   12   45 1
    24   12   46 1
    25   13   14 1
    26   14   15 2
    27   14   16 1
    28   16   21 ar
    29   16   17 ar
    30   17   18 ar
    31   17   47 1
    32   18   19 ar
    33   18   48 1
    34   19   20 ar
    35   19   49 1
    36   20   21 ar
    37   21   22 1
    38   22   23 1
    39   23   24 1
    40   23   25 1
    41   23   26 1
    42   25   50 1
    43   25   51 1
    44   25   52 1
    45   26   27 2
    46   26   28 am
    47   28   29 am
    48   28   53 1
    49   29   30 2
    50   29   31 am
    51   31   32 1
    52   31   54 1
    53   32   33 1
    54   32   34 1
    55   32   55 1
    56   33   56 1
    57   33   57 1
    58   33   58 1
    59   34   59 1
    60   34   60 1
    61   34   61 1
@<TRIPOS>MOLECULE
ZINC03840576
   79    82     0     0     0
SMALL
USER_CHARGES
2-(butylamino-hydroxy-dimethyl-BLAHyl)-N-(2-morpholinoethyl)propanamide
@<TRIPOS>ATOM
      1 C1          2.6288    0.6618    9.4126 C.3       1 <0>        -0.1543
      2 C2          1.9483    1.5046    8.3320 C.3       1 <0>        -0.1211
      3 C3          2.0426    0.7818    6.9868 C.3       1 <0>        -0.1306
      4 C4          1.3621    1.6245    5.9062 C.3       1 <0>         0.1226
      5 N1          1.4523    0.9324    4.6182 N.pl3     1 <0>        -0.6801
      6 C5          0.9026    1.5068    3.4828 C.2       1 <0>         0.3589
      7 N2          0.8819    1.0463    2.2487 N.2       1 <0>        -0.5852
      8 C6          0.3102    1.7187    1.2504 C.2       1 <0>         0.1184
      9 C7         -0.2528    2.9081    1.5799 C.2       1 <0>        -0.2418
     10 S1          0.0629    3.0203    3.3207 S.3       1 <0>         0.0265
     11 C8         -0.9562    3.8619    0.6805 C.3       1 <0>        -0.0140
     12 C9         -0.6567    3.4860   -0.7840 C.3       1 <0>        -0.0423
     13 C10        -1.6544    4.2372   -1.6711 C.3       1 <0>        -0.1098
     14 C11        -1.4632    3.8457   -3.1350 C.3       1 <0>        -0.1171
     15 C12        -1.7111    2.3410   -3.2784 C.3       1 <0>        -0.0985
     16 H1         -2.7174    2.1020   -2.9346 H         1 <0>         0.0889
     17 C13        -0.7015    1.5931   -2.4328 C.3       1 <0>         0.1154
     18 H2          0.2982    1.8474   -2.7849 H         1 <0>         0.0599
     19 C14        -0.8308    1.9750   -0.9545 C.3       1 <0>        -0.0567
     20 H3         -1.8088    1.6752   -0.5779 H         1 <0>         0.0837
     21 C15         0.2671    1.2258   -0.1880 C.3       1 <0>        -0.0009
     22 H4          1.2309    1.4082   -0.6633 H         1 <0>         0.0819
     23 C16        -0.0332   -0.2743   -0.2039 C.3       1 <0>        -0.1367
     24 O1         -0.9062    0.1862   -2.5773 O.3       1 <0>        -0.5490
     25 C17        -1.5601    1.9338   -4.7455 C.3       1 <0>        -0.1077
     26 H5         -1.6312    0.8494   -4.8308 H         1 <0>         0.1031
     27 C18        -0.1984    2.3982   -5.2662 C.3       1 <0>        -0.1555
     28 C19        -2.6544    2.5745   -5.5598 C.2       1 <0>         0.5285
     29 O2         -3.4768    3.2832   -5.0192 O.2       1 <0>        -0.5132
     30 N3         -2.7191    2.3598   -6.8888 N.am      1 <0>        -0.7360
     31 C20        -3.7829    2.9827   -7.6804 C.3       1 <0>         0.0942
     32 C21        -3.6285    2.5802   -9.1484 C.3       1 <0>        -0.0164
     33 C22        -6.0116    2.6631   -9.5745 C.3       1 <0>        -0.0452
     34 C23        -7.0965    3.3819  -10.3807 C.3       1 <0>         0.0352
     35 O3         -6.8216    3.2358  -11.7766 O.3       1 <0>        -0.3557
     36 C24        -5.5477    3.7533  -12.1698 C.3       1 <0>         0.0343
     37 C25        -4.4471    3.0383  -11.3816 C.3       1 <0>        -0.0375
     38 C26         0.7734    3.8914   -1.1461 C.3       1 <0>        -0.1458
     39 H6          2.5617    1.1768   10.3709 H         1 <0>         0.0588
     40 H7          2.1327   -0.3060    9.4846 H         1 <0>         0.0558
     41 H8          3.6769    0.5144    9.1520 H         1 <0>         0.0558
     42 H9          2.4444    2.4725    8.2599 H         1 <0>         0.0667
     43 H10         0.9003    1.6520    8.5926 H         1 <0>         0.0667
     44 H11         1.5465   -0.1861    7.0588 H         1 <0>         0.0739
     45 H12         3.0907    0.6343    6.7262 H         1 <0>         0.0740
     46 H13         1.8582    2.5924    5.8342 H         1 <0>         0.0696
     47 H14         0.3140    1.7719    6.1668 H         1 <0>         0.0695
     48 H15         1.8968    0.0722    4.5599 H         1 <0>         0.4150
     49 H16        -0.6042    4.8748    0.8762 H         1 <0>         0.0785
     50 H17        -2.0303    3.8084    0.8583 H         1 <0>         0.0775
     51 H18        -2.6698    3.9900   -1.3614 H         1 <0>         0.0670
     52 H19        -1.4978    5.3103   -1.5614 H         1 <0>         0.0692
     53 H20        -2.1722    4.3937   -3.7555 H         1 <0>         0.0789
     54 H21        -0.4458    4.0821   -3.4467 H         1 <0>         0.0667
     55 H22         0.1301   -0.6670   -1.2075 H         1 <0>         0.0806
     56 H23         0.6268   -0.7845    0.4977 H         1 <0>         0.0566
     57 H24        -1.0705   -0.4403    0.0869 H         1 <0>         0.0465
     58 H25        -0.7418   -0.1454   -3.4707 H         1 <0>         0.3651
     59 H26        -0.1274    3.4825   -5.1809 H         1 <0>         0.0711
     60 H27         0.5931    1.9347   -4.6772 H         1 <0>         0.0771
     61 H28        -0.0909    2.1081   -6.3113 H         1 <0>         0.0590
     62 H29        -2.0614    1.7930   -7.3211 H         1 <0>         0.4079
     63 H30        -4.7529    2.6486   -7.3121 H         1 <0>         0.0884
     64 H31        -3.7144    4.0669   -7.5918 H         1 <0>         0.0886
     65 H32        -2.6585    2.9142   -9.5167 H         1 <0>         0.1387
     66 H33        -3.6971    1.4959   -9.2370 H         1 <0>         0.1396
     67 H34        -6.0407    1.5961   -9.7953 H         1 <0>         0.1429
     68 H35        -6.1852    2.8199   -8.5099 H         1 <0>         0.1428
     69 H36        -7.1028    4.4402  -10.1198 H         1 <0>         0.0828
     70 H37        -8.0687    2.9445  -10.1535 H         1 <0>         0.1435
     71 H38        -5.5090    4.8224  -11.9609 H         1 <0>         0.0823
     72 H39        -5.3998    3.5846  -13.2364 H         1 <0>         0.1433
     73 H40        -3.4787    3.4690  -11.6362 H         1 <0>         0.1425
     74 H41        -4.4504    1.9773  -11.6313 H         1 <0>         0.1420
     75 H42         0.9762    3.6216   -2.1825 H         1 <0>         0.0573
     76 H43         0.8883    4.9682   -1.0219 H         1 <0>         0.0591
     77 H44         1.4746    3.3733   -0.4919 H         1 <0>         0.0616
     78 N4         -4.6966    3.2314   -9.9375 N.4       1 <0>        -0.3927
     79 H45        -4.6986    4.2371   -9.7302 H         1 <0>         0.4296
@<TRIPOS>BOND
     1    1    2 1
     2    1   39 1
     3    1   40 1
     4    1   41 1
     5    2    3 1
     6    2   42 1
     7    2   43 1
     8    3    4 1
     9    3   44 1
    10    3   45 1
    11    4    5 1
    12    4   46 1
    13    4   47 1
    14    5    6 1
    15    5   48 1
    16    6   10 1
    17    6    7 2
    18    7    8 1
    19    8   21 1
    20    8    9 2
    21    9   10 1
    22    9   11 1
    23   11   12 1
    24   11   49 1
    25   11   50 1
    26   12   19 1
    27   12   13 1
    28   12   38 1
    29   13   14 1
    30   13   51 1
    31   13   52 1
    32   14   15 1
    33   14   53 1
    34   14   54 1
    35   15   16 1
    36   15   17 1
    37   15   25 1
    38   17   18 1
    39   17   19 1
    40   17   24 1
    41   19   20 1
    42   19   21 1
    43   21   22 1
    44   21   23 1
    45   23   55 1
    46   23   56 1
    47   23   57 1
    48   24   58 1
    49   25   26 1
    50   25   27 1
    51   25   28 1
    52   27   59 1
    53   27   60 1
    54   27   61 1
    55   28   29 2
    56   28   30 am
    57   30   31 1
    58   30   62 1
    59   31   32 1
    60   31   63 1
    61   31   64 1
    62   32   65 1
    63   32   66 1
    64   32   78 1
    65   33   34 1
    66   33   67 1
    67   33   68 1
    68   33   78 1
    69   34   35 1
    70   34   69 1
    71   34   70 1
    72   35   36 1
    73   36   37 1
    74   36   71 1
    75   36   72 1
    76   37   73 1
    77   37   74 1
    78   37   78 1
    79   38   75 1
    80   38   76 1
    81   38   77 1
    82   78   79 1
@<TRIPOS>MOLECULE
ZINC16589957
   67    68     0     0     0
SMALL
USER_CHARGES
ethyl 4-methyl-5-(methylcarbamoyl)-2-[[2-[[2-(o-tolylamino)-2-oxo-ethyl]-propyl-amino]acetyl]amino]thiophene-3-carboxylate
@<TRIPOS>ATOM
      1 C1         -5.2440    9.5987   -2.5206 C.3       1 <0>        -0.1540
      2 C2         -4.7955    8.2245   -2.0195 C.3       1 <0>        -0.1498
      3 C3         -5.1032    8.1008   -0.5259 C.3       1 <0>        -0.0130
      4 C4         -5.2073    6.4572    1.2490 C.3       1 <0>        -0.0321
      5 C5         -6.6644    6.1588    1.0063 C.2       1 <0>         0.5031
      6 O1         -7.1236    6.2488   -0.1127 O.2       1 <0>        -0.5063
      7 N1         -7.4572    5.7921    2.0326 N.am      1 <0>        -0.6387
      8 C6         -8.8323    5.6296    1.8310 C.ar      1 <0>         0.1198
      9 C7         -9.4685    6.3036    0.7965 C.ar      1 <0>        -0.1202
     10 C8        -10.8248    6.1373    0.5972 C.ar      1 <0>        -0.1047
     11 C9        -11.5515    5.3086    1.4326 C.ar      1 <0>        -0.1147
     12 C10       -10.9221    4.6403    2.4665 C.ar      1 <0>        -0.0983
     13 C11        -9.5648    4.7986    2.6682 C.ar      1 <0>        -0.1006
     14 C12        -8.8798    4.0707    3.7960 C.3       1 <0>        -0.1213
     15 C13        -3.1062    6.8986    0.1294 C.3       1 <0>        -0.0224
     16 C14        -2.5418    5.5023    0.1844 C.2       1 <0>         0.4950
     17 O2         -3.2881    4.5467    0.1974 O.2       1 <0>        -0.4900
     18 N2         -1.2074    5.3158    0.2191 N.am      1 <0>        -0.5892
     19 C15        -0.6901    4.0361    0.2694 C.2       1 <0>         0.0584
     20 C16         0.6506    3.6389    0.3107 C.2       1 <0>        -0.1790
     21 C17         0.9193    2.2790    0.3581 C.2       1 <0>         0.0146
     22 C18        -0.1459    1.4204    0.3613 C.2       1 <0>        -0.2633
     23 S1         -1.5419    2.5267    0.2892 S.3       1 <0>         0.2955
     24 C19        -0.1404   -0.0433    0.4062 C.2       1 <0>         0.6028
     25 O3          0.9158   -0.6470    0.4476 O.2       1 <0>        -0.5078
     26 N3         -1.3048   -0.7220    0.4017 N.am      1 <0>        -0.7278
     27 C20        -1.2994   -2.1863    0.4466 C.3       1 <0>         0.0855
     28 C21         2.3352    1.7652    0.4051 C.3       1 <0>        -0.1203
     29 C22         1.7352    4.6268    0.3045 C.2       1 <0>         0.5236
     30 O4          2.2079    5.0042   -0.7504 O.2       1 <0>        -0.4806
     31 O5          2.2079    5.1165    1.4685 O.3       1 <0>        -0.3485
     32 C23         3.2815    6.0906    1.3865 C.3       1 <0>         0.0583
     33 C24         3.6826    6.5275    2.7968 C.3       1 <0>        -0.1548
     34 H1         -6.3162    9.7119   -2.3599 H         1 <0>         0.0695
     35 H2         -4.7106   10.3766   -1.9742 H         1 <0>         0.0667
     36 H3         -5.0248    9.6868   -3.5847 H         1 <0>         0.0790
     37 H4         -3.7234    8.1113   -2.1802 H         1 <0>         0.0807
     38 H5         -5.3289    7.4466   -2.5659 H         1 <0>         0.0931
     39 H6         -6.1822    8.1255   -0.3739 H         1 <0>         0.1458
     40 H7         -4.6417    8.9303    0.0100 H         1 <0>         0.1364
     41 H8         -4.7182    5.5724    1.6564 H         1 <0>         0.1651
     42 H9         -5.1182    7.2804    1.9578 H         1 <0>         0.1676
     43 H10        -7.0746    5.6407    2.9110 H         1 <0>         0.4192
     44 H11        -8.9023    6.9543    0.1466 H         1 <0>         0.1416
     45 H12       -11.3194    6.6585   -0.2091 H         1 <0>         0.1309
     46 H13       -12.6129    5.1834    1.2772 H         1 <0>         0.1309
     47 H14       -11.4925    3.9942    3.1174 H         1 <0>         0.1334
     48 H15        -8.9006    4.6891    4.6933 H         1 <0>         0.0772
     49 H16        -9.3980    3.1315    3.9900 H         1 <0>         0.0798
     50 H17        -7.8455    3.8648    3.5204 H         1 <0>         0.0603
     51 H18        -2.8585    7.4271    1.0500 H         1 <0>         0.1772
     52 H19        -2.6789    7.4300   -0.7209 H         1 <0>         0.1743
     53 H20        -0.6104    6.0802    0.2086 H         1 <0>         0.4312
     54 H21        -2.1465   -0.2409    0.3687 H         1 <0>         0.3982
     55 H22        -2.3254   -2.5539    0.4356 H         1 <0>         0.0821
     56 H23        -0.7650   -2.5744   -0.4206 H         1 <0>         0.0678
     57 H24        -0.8036   -2.5200    1.3582 H         1 <0>         0.0678
     58 H25         2.6993    1.6100   -0.6106 H         1 <0>         0.0881
     59 H26         2.9694    2.4931    0.9111 H         1 <0>         0.0663
     60 H27         2.3612    0.8207    0.9486 H         1 <0>         0.1054
     61 H28         4.1406    5.6432    0.8866 H         1 <0>         0.0775
     62 H29         2.9426    6.9580    0.8200 H         1 <0>         0.0724
     63 H30         2.8235    6.9749    3.2967 H         1 <0>         0.0658
     64 H31         4.0215    5.6601    3.3633 H         1 <0>         0.0712
     65 H32         4.4886    7.2588    2.7352 H         1 <0>         0.0865
     66 N4         -4.5722    6.8106   -0.0381 N.4       1 <0>        -0.3721
     67 H33        -4.7859    6.0800   -0.7271 H         1 <0>         0.4441
@<TRIPOS>BOND
     1    1    2 1
     2    1   34 1
     3    1   35 1
     4    1   36 1
     5    2    3 1
     6    2   37 1
     7    2   38 1
     8    3   39 1
     9    3   40 1
    10    3   66 1
    11    4    5 1
    12    4   41 1
    13    4   42 1
    14    4   66 1
    15    5    6 2
    16    5    7 am
    17    7    8 1
    18    7   43 1
    19    8   13 ar
    20    8    9 ar
    21    9   10 ar
    22    9   44 1
    23   10   11 ar
    24   10   45 1
    25   11   12 ar
    26   11   46 1
    27   12   13 ar
    28   12   47 1
    29   13   14 1
    30   14   48 1
    31   14   49 1
    32   14   50 1
    33   15   16 1
    34   15   51 1
    35   15   52 1
    36   15   66 1
    37   16   17 2
    38   16   18 am
    39   18   19 1
    40   18   53 1
    41   19   23 1
    42   19   20 2
    43   20   21 1
    44   20   29 1
    45   21   22 2
    46   21   28 1
    47   22   23 1
    48   22   24 1
    49   24   25 2
    50   24   26 am
    51   26   27 1
    52   26   54 1
    53   27   55 1
    54   27   56 1
    55   27   57 1
    56   28   58 1
    57   28   59 1
    58   28   60 1
    59   29   30 2
    60   29   31 1
    61   31   32 1
    62   32   33 1
    63   32   61 1
    64   32   62 1
    65   33   63 1
    66   33   64 1
    67   33   65 1
    68   66   67 1
@<TRIPOS>MOLECULE
ZINC31246044
   58    60     0     0     0
SMALL
USER_CHARGES
ethyl (4S)-6-[[[2-(4-fluoroanilino)-2-oxo-ethyl]-methyl-amino]methyl]-4-(5-methyl-2-furyl)-2-oxo-3,4-dihydro-1H-pyrimidine-5-carboxylate
@<TRIPOS>ATOM
      1 C1          0.3851   -3.5919    1.7580 C.3       1 <0>        -0.1611
      2 C2          1.7183   -2.9882    1.3120 C.3       1 <0>         0.0602
      3 O1          1.4962   -1.6773    0.7884 O.3       1 <0>        -0.3220
      4 C3          2.5784   -1.0021    0.3479 C.2       1 <0>         0.5484
      5 O2          3.6807   -1.5140    0.4073 O.2       1 <0>        -0.5514
      6 C4          2.4313    0.3008   -0.1830 C.2       1 <0>        -0.2442
      7 C5          3.4756    0.9486   -0.7430 C.2       1 <0>         0.2176
      8 N1          3.3323    2.2063   -1.2551 N.am      1 <0>        -0.6572
      9 C6          2.1781    2.8850   -1.2452 C.2       1 <0>         0.7049
     10 O3          2.1483    4.0013   -1.7255 O.2       1 <0>        -0.5383
     11 N2          1.0482    2.3707   -0.7208 N.am      1 <0>        -0.7246
     12 C7          1.0968    1.0173   -0.1423 C.3       1 <0>         0.2826
     13 H1          0.4226    0.4392   -0.7913 H         1 <0>         0.1249
     14 C8          0.6641    1.1120    1.2982 C.2       1 <0>        -0.0662
     15 C9         -0.1208    0.2306    1.9434 C.2       1 <0>        -0.1485
     16 C10        -0.2695    0.7063    3.2664 C.2       1 <0>        -0.2173
     17 C11         0.4335    1.8500    3.3506 C.2       1 <0>         0.0079
     18 O4          1.0015    2.0878    2.1571 O.3       1 <0>        -0.1690
     19 C12         0.5669    2.7142    4.5780 C.3       1 <0>        -0.0843
     20 C13         4.8209    0.2722   -0.8041 C.3       1 <0>         0.0216
     21 N3          5.5092    0.4337    0.4836 N.4       1 <0>        -0.3804
     22 C14         5.8379    1.8438    0.7317 C.3       1 <0>        -0.0663
     23 C15         6.7126   -0.4064    0.5463 C.3       1 <0>        -0.0220
     24 C16         7.2526   -0.4062    1.9533 C.2       1 <0>         0.5056
     25 O5          6.6902    0.2309    2.8186 O.2       1 <0>        -0.5162
     26 N4          8.3604   -1.1142    2.2500 N.am      1 <0>        -0.6582
     27 C17         8.8018   -1.2006    3.5761 C.ar      1 <0>         0.1154
     28 C18        10.1616   -1.2140    3.8567 C.ar      1 <0>        -0.1006
     29 C19        10.5949   -1.2945    5.1656 C.ar      1 <0>        -0.1334
     30 C20         9.6743   -1.3724    6.1971 C.ar      1 <0>         0.1043
     31 C21         8.3178   -1.3644    5.9190 C.ar      1 <0>        -0.1353
     32 C22         7.8803   -1.2788    4.6118 C.ar      1 <0>        -0.0849
     33 F1         10.1001   -1.4567    7.4764 F         1 <0>        -0.1302
     34 H2          0.5561   -4.6010    2.1611 H         1 <0>         0.0880
     35 H3         -0.2967   -3.6517    0.8968 H         1 <0>         0.0721
     36 H4         -0.0626   -2.9570    2.5368 H         1 <0>         0.0720
     37 H5          2.4001   -2.9284    2.1732 H         1 <0>         0.0735
     38 H6          2.1661   -3.6231    0.5333 H         1 <0>         0.0763
     39 H7          4.1947    2.7173   -1.7079 H         1 <0>         0.4628
     40 H8          0.1049    2.9365   -0.7179 H         1 <0>         0.4737
     41 H9         -0.5539   -0.6684    1.5302 H         1 <0>         0.1558
     42 H10        -0.8386    0.2409    4.0576 H         1 <0>         0.1523
     43 H11         1.2014    3.5828    4.3477 H         1 <0>         0.0768
     44 H12         1.0254    2.1301    5.3896 H         1 <0>         0.0904
     45 H13        -0.4287    3.0605    4.8926 H         1 <0>         0.0935
     46 H14         4.6836   -0.7987   -1.0147 H         1 <0>         0.1859
     47 H15         5.4248    0.7284   -1.6024 H         1 <0>         0.1474
     48 H16         6.3514    1.9357    1.7002 H         1 <0>         0.1455
     49 H17         4.9126    2.4383    0.7494 H         1 <0>         0.1200
     50 H18         6.4959    2.2132   -0.0687 H         1 <0>         0.1245
     51 H19         6.4574   -1.4350    0.2516 H         1 <0>         0.1712
     52 H20         7.4747   -0.0070   -0.1390 H         1 <0>         0.1621
     53 H21         8.9178   -1.6242    1.4504 H         1 <0>         0.4483
     54 H22        10.8800   -1.1575    3.0522 H         1 <0>         0.1409
     55 H23        11.6524   -1.3005    5.3846 H         1 <0>         0.1471
     56 H24         7.6013   -1.4256    6.7249 H         1 <0>         0.1442
     57 H25         6.8223   -1.2729    4.3953 H         1 <0>         0.1385
     58 H26         4.8237    0.1018    1.2773 H         1 <0>         0.4556
@<TRIPOS>BOND
     1    1    2 1
     2    1   34 1
     3    1   35 1
     4    1   36 1
     5    2    3 1
     6    2   37 1
     7    2   38 1
     8    3    4 1
     9    4    5 2
    10    4    6 1
    11    6   12 1
    12    6    7 2
    13    7    8 1
    14    7   20 1
    15    8    9 am
    16    8   39 1
    17    9   10 2
    18    9   11 am
    19   11   12 1
    20   11   40 1
    21   12   13 1
    22   12   14 1
    23   14   18 1
    24   14   15 2
    25   15   16 1
    26   15   41 1
    27   16   17 2
    28   16   42 1
    29   17   18 1
    30   17   19 1
    31   19   43 1
    32   19   44 1
    33   19   45 1
    34   20   21 1
    35   20   46 1
    36   20   47 1
    37   21   22 1
    38   21   23 1
    39   21   58 1
    40   22   48 1
    41   22   49 1
    42   22   50 1
    43   23   24 1
    44   23   51 1
    45   23   52 1
    46   24   25 2
    47   24   26 am
    48   26   27 1
    49   26   53 1
    50   27   32 ar
    51   27   28 ar
    52   28   29 ar
    53   28   54 1
    54   29   30 ar
    55   29   55 1
    56   30   31 ar
    57   30   33 1
    58   31   32 ar
    59   31   56 1
    60   32   57 1
@<TRIPOS>MOLECULE
ZINC39699988
   58    60     0     0     0
SMALL
USER_CHARGES

@<TRIPOS>ATOM
      1 C1          5.9637    1.4757   11.5042 C.3       1 <0>        -0.1163
      2 C2          6.5958    0.8347   10.2957 C.ar      1 <0>        -0.1121
      3 C3          7.9685    0.8526   10.1420 C.ar      1 <0>        -0.1032
      4 C4          8.5492    0.2647    9.0335 C.ar      1 <0>        -0.1279
      5 C5          7.7585   -0.3433    8.0755 C.ar      1 <0>        -0.1069
      6 C6          6.3857   -0.3649    8.2235 C.ar      1 <0>        -0.1214
      7 C7          5.7995    0.2205    9.3383 C.ar      1 <0>         0.1377
      8 N1          4.4092    0.1957    9.4938 N.am      1 <0>        -0.6674
      9 C8          3.6093    0.2164    8.4093 C.2       1 <0>         0.5142
     10 O1          4.0918    0.1511    7.2985 O.2       1 <0>        -0.5057
     11 C9          2.1152    0.3208    8.5768 C.3       1 <0>         0.0979
     12 N2          1.4751    0.3239    7.2591 N.pl3     1 <0>        -1.0877
     13 S1         -0.1438    0.0027    7.1243 S.o2      1 <0>         2.7109
     14 O2         -0.4693    0.1278    5.7467 O.2       1 <0>        -0.9306
     15 O3         -0.3838   -1.1900    7.8585 O.2       1 <0>        -0.9612
     16 C10        -1.0025    1.2922    7.9637 C.ar      1 <0>        -0.6321
     17 C11        -1.7677    1.0040    9.0751 C.ar      1 <0>        -0.0251
     18 C12        -2.4424    2.0152    9.7353 C.ar      1 <0>        -0.1062
     19 C13        -2.3550    3.3213    9.2866 C.ar      1 <0>        -0.0710
     20 C14        -1.5931    3.6231    8.1771 C.ar      1 <0>        -0.1060
     21 C15        -0.9054    2.6082    7.5094 C.ar      1 <0>        -0.0465
     22 C16        -0.0824    2.9252    6.3229 C.2       1 <0>         0.5490
     23 O4          0.6093    2.0642    5.8153 O.2       1 <0>        -0.4980
     24 N3         -0.0990    4.1690    5.8040 N.am      1 <0>        -0.7231
     25 C17         0.7166    4.4832    4.6282 C.3       1 <0>         0.1199
     26 C18         0.5163    5.9511    4.2461 C.3       1 <0>        -0.1552
     27 C19         1.3681    6.2792    3.0182 C.3       1 <0>         0.0947
     28 N4          1.1763    7.6847    2.6523 N.pl3     1 <0>        -0.4084
     29 C20         0.2290    8.1794    1.7970 C.2       1 <0>         0.0261
     30 C21         0.4069    9.5134    1.7479 C.2       1 <0>         0.0045
     31 N5          1.4348    9.8247    2.5513 N.pl3     1 <0>        -0.4760
     32 C22         1.8974    8.7349    3.1003 C.cat     1 <0>         0.2883
     33 H1          5.8843    0.7410   12.3054 H         1 <0>         0.0738
     34 H2          6.5803    2.3108   11.8368 H         1 <0>         0.0724
     35 H3          4.9694    1.8391   11.2445 H         1 <0>         0.0613
     36 H4          8.5887    1.3266   10.8884 H         1 <0>         0.1269
     37 H5          9.6226    0.2806    8.9154 H         1 <0>         0.1247
     38 H6          8.2151   -0.8013    7.2106 H         1 <0>         0.1263
     39 H7          5.7687   -0.8396    7.4748 H         1 <0>         0.1453
     40 H8          4.0210    0.1635   10.3822 H         1 <0>         0.4135
     41 H9          1.7541   -0.5303    9.1542 H         1 <0>         0.1144
     42 H10         1.8721    1.2450    9.1011 H         1 <0>         0.0942
     43 H11         1.9996    0.5141    6.4656 H         1 <0>         0.4353
     44 H12        -1.8403   -0.0134    9.4302 H         1 <0>         0.1558
     45 H13        -3.0403    1.7842   10.6046 H         1 <0>         0.1444
     46 H14        -2.8848    4.1061    9.8061 H         1 <0>         0.1414
     47 H15        -1.5257    4.6429    7.8280 H         1 <0>         0.1321
     48 H16        -0.6510    4.8561    6.2090 H         1 <0>         0.4031
     49 H17         1.7676    4.3076    4.8577 H         1 <0>         0.0837
     50 H18         0.4150    3.8467    3.7963 H         1 <0>         0.0862
     51 H19        -0.5347    6.1267    4.0167 H         1 <0>         0.0899
     52 H20         0.8179    6.5875    5.0780 H         1 <0>         0.0868
     53 H21         2.4191    6.1036    3.2476 H         1 <0>         0.1279
     54 H22         1.0665    5.6427    2.1862 H         1 <0>         0.1314
     55 H23        -0.5175    7.6094    1.2637 H         1 <0>         0.2237
     56 H24        -0.1760   10.2103    1.1640 H         1 <0>         0.2244
     57 H25         2.7221    8.6815    3.7956 H         1 <0>         0.2600
     58 H26         1.7778   10.7193    2.7032 H         1 <0>         0.4658
@<TRIPOS>BOND
     1    1    2 1
     2    1   33 1
     3    1   34 1
     4    1   35 1
     5    2    7 ar
     6    2    3 ar
     7    3    4 ar
     8    3   36 1
     9    4    5 ar
    10    4   37 1
    11    5    6 ar
    12    5   38 1
    13    6    7 ar
    14    6   39 1
    15    7    8 1
    16    8    9 am
    17    8   40 1
    18    9   10 2
    19    9   11 1
    20   11   12 1
    21   11   41 1
    22   11   42 1
    23   12   13 1
    24   12   43 1
    25   13   14 2
    26   13   15 2
    27   13   16 1
    28   16   21 ar
    29   16   17 ar
    30   17   18 ar
    31   17   44 1
    32   18   19 ar
    33   18   45 1
    34   19   20 ar
    35   19   46 1
    36   20   21 ar
    37   20   47 1
    38   21   22 1
    39   22   23 2
    40   22   24 am
    41   24   25 1
    42   24   48 1
    43   25   26 1
    44   25   49 1
    45   25   50 1
    46   26   27 1
    47   26   51 1
    48   26   52 1
    49   27   28 1
    50   27   53 1
    51   27   54 1
    52   28   32 1
    53   28   29 1
    54   29   30 2
    55   29   55 1
    56   30   31 1
    57   30   56 1
    58   31   32 2
    59   31   58 1
    60   32   57 1
@<TRIPOS>MOLECULE
ZINC57371645
   59    62     0     0     0
SMALL
USER_CHARGES

@<TRIPOS>ATOM
      1 C1         -0.0166    1.3726    0.0096 C.ar      1 <0>        -0.0841
      2 C2          1.1689    2.0927    0.0021 C.ar      1 <0>        -0.0732
      3 C3          2.3836    1.4388   -0.0130 C.ar      1 <0>        -0.0894
      4 C4          2.4213    0.0528   -0.0208 C.ar      1 <0>         0.0865
      5 C5          1.2239   -0.6813   -0.0133 C.ar      1 <0>         0.0616
      6 C6          0.0021   -0.0041    0.0020 C.ar      1 <0>        -0.0777
      7 N1          1.5618   -1.9977   -0.0236 N.pl3     1 <0>        -0.5382
      8 C7          2.8660   -2.1169   -0.0368 C.cat     1 <0>         0.6516
      9 N2          3.4451   -0.8803   -0.0356 N.pl3     1 <0>        -0.4655
     10 C8          4.8817   -0.5937   -0.0485 C.3       1 <0>         0.0734
     11 C9          5.3963   -0.5011    1.3894 C.3       1 <0>         0.0885
     12 H1          4.8108    0.2368    1.9379 H         1 <0>         0.1257
     13 C10         6.8670   -0.0795    1.3786 C.3       1 <0>         0.0315
     14 O1          7.3151    0.1200    2.7208 O.3       1 <0>        -0.3547
     15 C11         8.6837    0.5183    2.8234 C.3       1 <0>         0.1837
     16 C12         8.8668    1.3756    4.0492 C.ar      1 <0>        -0.1043
     17 C13         8.2144    1.0498    5.2237 C.ar      1 <0>        -0.0586
     18 C14         8.3819    1.8350    6.3485 C.ar      1 <0>        -0.1556
     19 C15         9.2035    2.9484    6.2989 C.ar      1 <0>         0.1101
     20 C16         9.8563    3.2737    5.1220 C.ar      1 <0>        -0.1527
     21 C17         9.6914    2.4841    3.9999 C.ar      1 <0>        -0.0766
     22 F1          9.3676    3.7170    7.3977 F         1 <0>        -0.1346
     23 C18         9.5563   -0.7057    2.9316 C.ar      1 <0>        -0.1303
     24 C19         9.1012   -1.8205    3.6106 C.ar      1 <0>        -0.0629
     25 C20         9.9003   -2.9437    3.7100 C.ar      1 <0>        -0.1558
     26 C21        11.1571   -2.9520    3.1292 C.ar      1 <0>         0.1077
     27 C22        11.6119   -1.8348    2.4494 C.ar      1 <0>        -0.1530
     28 C23        10.8089   -0.7147    2.3468 C.ar      1 <0>        -0.0779
     29 F2         11.9394   -4.0492    3.2261 F         1 <0>        -0.1354
     30 O2          5.2707   -1.7756    2.0233 O.3       1 <0>        -0.5361
     31 N3          3.5521   -3.3130   -0.0498 N.pl3     1 <0>        -0.6687
     32 C24         2.8161   -4.5797   -0.0501 C.3       1 <0>         0.1024
     33 C25         3.8070   -5.7453   -0.0657 C.3       1 <0>         0.0623
     34 O3          4.5605   -5.7463    1.1485 O.3       1 <0>        -0.5724
     35 H2         -0.9613    1.8958    0.0260 H         1 <0>         0.1539
     36 H3          1.1408    3.1723    0.0079 H         1 <0>         0.1537
     37 H4          3.3031    2.0053   -0.0191 H         1 <0>         0.1464
     38 H5         -0.9247   -0.5585    0.0083 H         1 <0>         0.1497
     39 H6          5.4070   -1.3929   -0.5716 H         1 <0>         0.1110
     40 H7          5.0589    0.3526   -0.5595 H         1 <0>         0.1335
     41 H8          7.4652   -0.8598    0.9080 H         1 <0>         0.0634
     42 H9          6.9747    0.8489    0.8178 H         1 <0>         0.0702
     43 H10         8.9640    1.0872    1.9369 H         1 <0>         0.0839
     44 H11         7.5734    0.1814    5.2621 H         1 <0>         0.1355
     45 H12         7.8719    1.5804    7.2659 H         1 <0>         0.1388
     46 H13        10.4971    4.1422    5.0820 H         1 <0>         0.1407
     47 H14        10.2041    2.7351    3.0830 H         1 <0>         0.1338
     48 H15         8.1209   -1.8137    4.0638 H         1 <0>         0.1379
     49 H16         9.5447   -3.8144    4.2408 H         1 <0>         0.1376
     50 H17        12.5922   -1.8401    1.9962 H         1 <0>         0.1395
     51 H18        11.1616    0.1552    1.8127 H         1 <0>         0.1333
     52 H19         5.7669   -2.4821    1.5876 H         1 <0>         0.3739
     53 H20         4.5221   -3.3157   -0.0587 H         1 <0>         0.4340
     54 H21         2.1975   -4.6407    0.8453 H         1 <0>         0.0972
     55 H22         2.1811   -4.6307   -0.9346 H         1 <0>         0.1015
     56 H23         3.2615   -6.6847   -0.1555 H         1 <0>         0.0854
     57 H24         4.4837   -5.6356   -0.9132 H         1 <0>         0.0647
     58 H25         5.2101   -6.4602    1.2077 H         1 <0>         0.3986
     59 H26         0.9329   -2.7362   -0.0213 H         1 <0>         0.4543
@<TRIPOS>BOND
     1    1    6 ar
     2    1    2 ar
     3    1   35 1
     4    2    3 ar
     5    2   36 1
     6    3    4 ar
     7    3   37 1
     8    4    9 1
     9    4    5 ar
    10    5    6 ar
    11    5    7 1
    12    6   38 1
    13    7    8 2
    14    7   59 1
    15    8    9 1
    16    8   31 1
    17    9   10 1
    18   10   11 1
    19   10   39 1
    20   10   40 1
    21   11   12 1
    22   11   13 1
    23   11   30 1
    24   13   14 1
    25   13   41 1
    26   13   42 1
    27   14   15 1
    28   15   16 1
    29   15   23 1
    30   15   43 1
    31   16   21 ar
    32   16   17 ar
    33   17   18 ar
    34   17   44 1
    35   18   19 ar
    36   18   45 1
    37   19   20 ar
    38   19   22 1
    39   20   21 ar
    40   20   46 1
    41   21   47 1
    42   23   28 ar
    43   23   24 ar
    44   24   25 ar
    45   24   48 1
    46   25   26 ar
    47   25   49 1
    48   26   27 ar
    49   26   29 1
    50   27   28 ar
    51   27   50 1
    52   28   51 1
    53   30   52 1
    54   31   32 1
    55   31   53 1
    56   32   33 1
    57   32   54 1
    58   32   55 1
    59   33   34 1
    60   33   56 1
    61   33   57 1
    62   34   58 1
@<TRIPOS>MOLECULE
ZINC66091520
   72    75     0     0     0
SMALL
USER_CHARGES

@<TRIPOS>ATOM
      1 C1         -1.2667    1.3680   -1.0331 C.3       1 <0>        -0.1530
      2 C2         -0.8818   -0.0660   -0.6638 C.3       1 <0>         0.0592
      3 O1         -0.0227   -0.6031   -1.6715 O.3       1 <0>        -0.3337
      4 C3          0.4086   -1.8622   -1.4969 C.2       1 <0>         0.4694
      5 O2          0.0679   -2.4876   -0.5208 O.2       1 <0>        -0.4793
      6 C4          1.3177   -2.4957   -2.5182 C.3       1 <0>         0.2283
      7 C5          2.7447   -2.0567   -2.2862 C.2       1 <0>        -0.2198
      8 C6          3.1421   -1.4058   -3.4190 C.2       1 <0>         0.1979
      9 C7          2.0240   -1.4021   -4.3881 C.2       1 <0>         0.5385
     10 O3          2.0617   -0.8997   -5.4936 O.2       1 <0>        -0.4594
     11 N1          0.9598   -2.0368   -3.8651 N.am      1 <0>        -0.5308
     12 C8         -0.2727   -2.2270   -4.4955 C.ar      1 <0>         0.1696
     13 C9         -1.2948   -2.8996   -3.8375 C.ar      1 <0>        -0.1616
     14 C10        -2.5116   -3.0858   -4.4634 C.ar      1 <0>        -0.0863
     15 C11        -2.7134   -2.6036   -5.7438 C.ar      1 <0>        -0.1337
     16 C12        -1.6981   -1.9336   -6.4017 C.ar      1 <0>        -0.0853
     17 C13        -0.4807   -1.7389   -5.7795 C.ar      1 <0>        -0.1440
     18 N2          4.3767   -0.8458   -3.6246 N.pl3     1 <0>        -0.6578
     19 C14         4.4858    0.5137   -3.9188 C.ar      1 <0>         0.1782
     20 C15         3.3638    1.3318   -3.8582 C.ar      1 <0>        -0.1561
     21 C16         3.4757    2.6768   -4.1496 C.ar      1 <0>        -0.0759
     22 C17         4.7023    3.2101   -4.5018 C.ar      1 <0>        -0.1481
     23 C18         5.8209    2.3991   -4.5635 C.ar      1 <0>        -0.0809
     24 C19         5.7179    1.0543   -4.2675 C.ar      1 <0>        -0.1652
     25 C20         3.5164   -2.2766   -1.1252 C.2       1 <0>         0.4228
     26 O4          3.3100   -1.6177   -0.1241 O.2       1 <0>        -0.3807
     27 C21         4.5849   -3.3167   -1.1260 C.2       1 <0>         0.4884
     28 O5          4.8524   -3.9113   -2.1500 O.2       1 <0>        -0.4890
     29 N3          5.2537   -3.5967    0.0101 N.am      1 <0>        -0.7062
     30 C22         6.3035   -4.6186    0.0093 C.3       1 <0>         0.1172
     31 C23         6.8987   -4.7394    1.4136 C.3       1 <0>         0.0410
     32 N4          7.9513   -5.7641    1.4127 N.3       1 <0>        -0.5353
     33 C24         9.0941   -5.3446    0.5892 C.3       1 <0>         0.0152
     34 C25        10.1398   -6.4616    0.5663 C.3       1 <0>        -0.0026
     35 N5         10.5813   -6.7474    1.9378 N.4       1 <0>        -0.5089
     36 C26         9.4337   -7.1887    2.7415 C.3       1 <0>        -0.0025
     37 C27         8.3821   -6.0777    2.7825 C.3       1 <0>         0.0247
     38 C28         1.2158   -4.0202   -2.4381 C.3       1 <0>        -0.1581
     39 H1         -0.3666    1.9784   -1.1062 H         1 <0>         0.0677
     40 H2         -1.7856    1.3696   -1.9916 H         1 <0>         0.0692
     41 H3         -1.9220    1.7777   -0.2644 H         1 <0>         0.0850
     42 H4         -0.3629   -0.0676    0.2947 H         1 <0>         0.0722
     43 H5         -1.7819   -0.6764   -0.5907 H         1 <0>         0.0727
     44 H6         -1.1379   -3.2767   -2.8377 H         1 <0>         0.1224
     45 H7         -3.3065   -3.6089   -3.9526 H         1 <0>         0.1312
     46 H8         -3.6658   -2.7509   -6.2311 H         1 <0>         0.1292
     47 H9         -1.8588   -1.5586   -7.4016 H         1 <0>         0.1330
     48 H10         0.3102   -1.2114   -6.2920 H         1 <0>         0.1541
     49 H11         5.1742   -1.3948   -3.5655 H         1 <0>         0.4202
     50 H12         2.4055    0.9159   -3.5840 H         1 <0>         0.1161
     51 H13         2.6043    3.3132   -4.1027 H         1 <0>         0.1277
     52 H14         4.7867    4.2625   -4.7295 H         1 <0>         0.1264
     53 H15         6.7769    2.8189   -4.8396 H         1 <0>         0.1285
     54 H16         6.5926    0.4224   -4.3116 H         1 <0>         0.1242
     55 H17         5.0400   -3.1216    0.8283 H         1 <0>         0.4139
     56 H18         5.8776   -5.5767   -0.2885 H         1 <0>         0.0905
     57 H19         7.0864   -4.3347   -0.6940 H         1 <0>         0.0754
     58 H20         7.3246   -3.7813    1.7114 H         1 <0>         0.0583
     59 H21         6.1158   -5.0233    2.1168 H         1 <0>         0.1003
     60 H22         8.7554   -5.1426   -0.4269 H         1 <0>         0.1268
     61 H23         9.5353   -4.4420    1.0122 H         1 <0>         0.0650
     62 H24         9.7023   -7.3600    0.1308 H         1 <0>         0.1417
     63 H25        10.9946   -6.1468   -0.0323 H         1 <0>         0.1404
     64 H26        11.2798   -7.4754    1.9212 H         1 <0>         0.4358
     65 H27         8.9998   -8.0833    2.2948 H         1 <0>         0.1414
     66 H28         9.7650   -7.4129    3.7554 H         1 <0>         0.1407
     67 H29         8.8116   -5.1872    3.2415 H         1 <0>         0.0643
     68 H30         7.5240   -6.4105    3.3664 H         1 <0>         0.1265
     69 H31         0.2125   -4.3330   -2.7271 H         1 <0>         0.0924
     70 H32         1.9448   -4.4691   -3.1127 H         1 <0>         0.0936
     71 H33         1.4175   -4.3447   -1.4172 H         1 <0>         0.0905
     72 H34        10.9756   -5.9126    2.3448 H         1 <0>         0.4264
@<TRIPOS>BOND
     1    1    2 1
     2    1   39 1
     3    1   40 1
     4    1   41 1
     5    2    3 1
     6    2   42 1
     7    2   43 1
     8    3    4 1
     9    4    5 2
    10    4    6 1
    11    6   11 1
    12    6    7 1
    13    6   38 1
    14    7    8 2
    15    7   25 1
    16    8    9 1
    17    8   18 1
    18    9   10 2
    19    9   11 am
    20   11   12 1
    21   12   17 ar
    22   12   13 ar
    23   13   14 ar
    24   13   44 1
    25   14   15 ar
    26   14   45 1
    27   15   16 ar
    28   15   46 1
    29   16   17 ar
    30   16   47 1
    31   17   48 1
    32   18   19 1
    33   18   49 1
    34   19   24 ar
    35   19   20 ar
    36   20   21 ar
    37   20   50 1
    38   21   22 ar
    39   21   51 1
    40   22   23 ar
    41   22   52 1
    42   23   24 ar
    43   23   53 1
    44   24   54 1
    45   25   26 2
    46   25   27 1
    47   27   28 2
    48   27   29 am
    49   29   30 1
    50   29   55 1
    51   30   31 1
    52   30   56 1
    53   30   57 1
    54   31   32 1
    55   31   58 1
    56   31   59 1
    57   32   37 1
    58   32   33 1
    59   33   34 1
    60   33   60 1
    61   33   61 1
    62   34   35 1
    63   34   62 1
    64   34   63 1
    65   35   36 1
    66   35   64 1
    67   35   72 1
    68   36   37 1
    69   36   65 1
    70   36   66 1
    71   37   67 1
    72   37   68 1
    73   38   69 1
    74   38   70 1
    75   38   71 1
@<TRIPOS>MOLECULE
ZINC27249498
   54    55     0     0     0
SMALL
USER_CHARGES
N-[(1R)-1-[(cyclopentylcarbamothioylamino)carbamoyl]-2-methyl-propyl]-4-methyl-benzamide
@<TRIPOS>ATOM
      1 C1          9.8013    3.7725   10.5684 C.3       1 <0>        -0.1250
      2 C2          8.9239    3.6099    9.3539 C.ar      1 <0>        -0.0549
      3 C3          9.4711    3.1653    8.1635 C.ar      1 <0>        -0.1292
      4 C4          8.6735    3.0143    7.0480 C.ar      1 <0>        -0.0534
      5 C5          7.3116    3.3107    7.1224 C.ar      1 <0>        -0.1443
      6 C6          6.7669    3.7634    8.3251 C.ar      1 <0>        -0.0797
      7 C7          7.5746    3.9055    9.4345 C.ar      1 <0>        -0.1288
      8 C8          6.4509    3.1517    5.9309 C.2       1 <0>         0.5684
      9 O1          6.9291    2.7620    4.8834 O.2       1 <0>        -0.5320
     10 N1          5.1363    3.4387    6.0060 N.am      1 <0>        -0.7236
     11 C9          4.2834    3.2811    4.8253 C.3       1 <0>         0.1482
     12 H1          4.6457    2.4039    4.2692 H         1 <0>         0.1164
     13 C10         4.3608    4.5459    3.9678 C.3       1 <0>        -0.0979
     14 C11         4.0166    5.7653    4.8255 C.3       1 <0>        -0.1523
     15 C12         5.7774    4.6981    3.4101 C.3       1 <0>        -0.1422
     16 C13         2.8585    3.0561    5.2612 C.2       1 <0>         0.5256
     17 O2          2.5023    3.3972    6.3693 O.2       1 <0>        -0.5205
     18 N2          1.9800    2.4760    4.4198 N.am      1 <0>        -0.5530
     19 N3          0.6853    2.1711    4.8597 N.pl3     1 <0>        -0.4823
     20 C14        -0.1932    1.5909    4.0183 C.2       1 <0>         0.5683
     21 S1         -1.7754    1.2184    4.5559 S.2       1 <0>        -0.6051
     22 N4          0.1738    1.3040    2.7536 N.pl3     1 <0>        -0.6929
     23 C15        -0.7812    0.6733    1.8389 C.3       1 <0>         0.1333
     24 C16        -0.0373   -0.1068    0.7354 C.3       1 <0>        -0.1300
     25 C17        -0.8387    0.0940   -0.5628 C.3       1 <0>        -0.1234
     26 C18        -2.0427    0.9890   -0.2034 C.3       1 <0>        -0.1181
     27 C19        -1.5854    1.7493    1.0662 C.3       1 <0>        -0.1268
     28 H2         10.8343    3.4924   10.3146 H         1 <0>         0.0696
     29 H3          9.4332    3.1230   11.3763 H         1 <0>         0.0756
     30 H4          9.7768    4.8208   10.9008 H         1 <0>         0.0756
     31 H5         10.5251    2.9363    8.1072 H         1 <0>         0.1308
     32 H6          9.1018    2.6672    6.1193 H         1 <0>         0.1367
     33 H7          5.7147    3.9987    8.3881 H         1 <0>         0.1260
     34 H8          7.1537    4.2521   10.3667 H         1 <0>         0.1301
     35 H9          4.7037    3.7913    6.9539 H         1 <0>         0.4327
     36 H10         3.6455    4.4691    3.1357 H         1 <0>         0.0806
     37 H11         4.0722    6.6746    4.2091 H         1 <0>         0.0627
     38 H12         4.7320    5.8420    5.6576 H         1 <0>         0.0623
     39 H13         2.9981    5.6558    5.2265 H         1 <0>         0.0567
     40 H14         5.8330    5.6074    2.7936 H         1 <0>         0.0555
     41 H15         6.0249    3.8214    2.7935 H         1 <0>         0.0642
     42 H16         6.4927    4.7749    4.2422 H         1 <0>         0.0633
     43 H17         2.2796    2.2419    3.3876 H         1 <0>         0.4402
     44 H18         0.3857    2.4053    5.8919 H         1 <0>         0.4887
     45 H19         1.1903    1.5434    2.4082 H         1 <0>         0.3996
     46 H20        -1.3935    0.0392    2.4969 H         1 <0>         0.1279
     47 H21         0.9835    0.2894    0.6310 H         1 <0>         0.0671
     48 H22         0.0087   -1.1718    1.0067 H         1 <0>         0.0759
     49 H23        -0.2006    0.5789   -1.3163 H         1 <0>         0.0669
     50 H24        -1.1750   -0.8827   -0.9409 H         1 <0>         0.0704
     51 H25        -2.2546    1.6717   -1.0395 H         1 <0>         0.0708
     52 H26        -2.9239    0.3589   -0.0122 H         1 <0>         0.0741
     53 H27        -2.4292    2.0903    1.6840 H         1 <0>         0.0844
     54 H28        -0.9302    2.6027    0.8372 H         1 <0>         0.0672
@<TRIPOS>BOND
     1    1    2 1
     2    1   28 1
     3    1   29 1
     4    1   30 1
     5    2    7 ar
     6    2    3 ar
     7    3    4 ar
     8    3   31 1
     9    4    5 ar
    10    4   32 1
    11    5    6 ar
    12    5    8 1
    13    6    7 ar
    14    6   33 1
    15    7   34 1
    16    8    9 2
    17    8   10 am
    18   10   11 1
    19   10   35 1
    20   11   12 1
    21   11   13 1
    22   11   16 1
    23   13   14 1
    24   13   15 1
    25   13   36 1
    26   14   37 1
    27   14   38 1
    28   14   39 1
    29   15   40 1
    30   15   41 1
    31   15   42 1
    32   16   17 2
    33   16   18 am
    34   18   19 1
    35   18   43 1
    36   19   20 1
    37   19   44 1
    38   20   21 2
    39   20   22 1
    40   22   23 1
    41   22   45 1
    42   23   27 1
    43   23   24 1
    44   23   46 1
    45   24   25 1
    46   24   47 1
    47   24   48 1
    48   25   26 1
    49   25   49 1
    50   25   50 1
    51   26   27 1
    52   26   51 1
    53   26   52 1
    54   27   53 1
    55   27   54 1
@<TRIPOS>MOLECULE
ZINC43554117
   71    73     0     0     0
SMALL
USER_CHARGES

@<TRIPOS>ATOM
      1 C1          0.1793    1.5161   -0.0160 C.3       1 <0>        -0.1653
      2 C2          0.1698   -0.0249   -0.0097 C.3       1 <0>        -0.0298
      3 C3         -1.2773   -0.5053    0.0102 C.3       1 <0>        -0.1011
      4 C4         -1.9653   -0.0269    1.2911 C.3       1 <0>        -0.1559
      5 C5         -1.2597   -0.5990    2.5117 C.3       1 <0>         0.1271
      6 H1         -1.7168   -0.1630    3.4140 H         1 <0>         0.0506
      7 C6          0.2303   -0.2799    2.5290 C.3       1 <0>        -0.0329
      8 C7          0.9188   -0.5715    1.2026 C.3       1 <0>        -0.0469
      9 H2          1.9169   -0.1023    1.2238 H         1 <0>         0.0620
     10 C8          1.1218   -2.0827    1.0505 C.3       1 <0>        -0.1148
     11 C9          1.8899   -2.4055   -0.2336 C.3       1 <0>        -0.1558
     12 C10         1.0839   -1.9228   -1.4381 C.3       1 <0>         0.0995
     13 H3          1.6649   -2.1245   -2.3485 H         1 <0>         0.0792
     14 C11         0.8678   -0.4238   -1.3125 C.3       1 <0>        -0.0476
     15 H4          1.8590    0.0656   -1.3171 H         1 <0>         0.0799
     16 C12         0.0915    0.1013   -2.5206 C.3       1 <0>        -0.1399
     17 C13         0.8615   -0.1978   -3.7811 C.2       1 <0>         0.5156
     18 O1          1.9266   -0.7745   -3.7186 O.2       1 <0>        -0.5374
     19 N1          0.3665    0.1755   -4.9778 N.am      1 <0>        -0.7346
     20 C14         1.1150   -0.1153   -6.2031 C.3       1 <0>         0.1245
     21 C15         0.3383    0.4101   -7.4120 C.3       1 <0>        -0.0869
     22 C16         1.1083    0.1110   -8.6725 C.ar      1 <0>        -0.0816
     23 C17         2.0292    1.0242   -9.1513 C.ar      1 <0>        -0.1087
     24 C18         2.7381    0.7545  -10.3071 C.ar      1 <0>        -0.1702
     25 C19         2.5266   -0.4336  -10.9881 C.ar      1 <0>         0.0995
     26 C20         1.6000   -1.3530  -10.5059 C.ar      1 <0>         0.1018
     27 C21         0.8963   -1.0785   -9.3442 C.ar      1 <0>        -0.1658
     28 O2          1.3889   -2.5204  -11.1708 O.3       1 <0>        -0.3060
     29 C22         0.4230   -3.4165  -10.6177 C.3       1 <0>         0.0256
     30 O3          3.2228   -0.7003  -12.1255 O.3       1 <0>        -0.3066
     31 C23         4.1568    0.2894  -12.5616 C.3       1 <0>         0.0256
     32 O4         -0.1518   -2.6240   -1.5272 O.3       1 <0>        -0.5598
     33 C24         0.4422    1.1730    2.9766 C.3       1 <0>        -0.1496
     34 C25         0.8636   -1.1437    3.6449 C.3       1 <0>         0.0821
     35 O5          0.2621   -0.8170    4.8994 O.3       1 <0>        -0.5717
     36 O6         -1.4566   -2.0149    2.5678 O.3       1 <0>        -0.5603
     37 H5          1.2041    1.8736    0.0852 H         1 <0>         0.0540
     38 H6         -0.2408    1.8782   -0.9544 H         1 <0>         0.0582
     39 H7         -0.4186    1.8866    0.8167 H         1 <0>         0.0665
     40 H8         -1.8302   -0.1104   -0.8417 H         1 <0>         0.0554
     41 H9         -1.3121   -1.5948   -0.0122 H         1 <0>         0.0921
     42 H10        -1.9980    1.0568    1.3347 H         1 <0>         0.0699
     43 H11        -3.0027   -0.3922    1.2792 H         1 <0>         0.0582
     44 H12         1.7190   -2.4891    1.8681 H         1 <0>         0.0537
     45 H13         0.1553   -2.5831    1.0231 H         1 <0>         0.0888
     46 H14         2.8564   -1.9011   -0.2141 H         1 <0>         0.0662
     47 H15         2.0436   -3.4824   -0.3031 H         1 <0>         0.0616
     48 H16        -0.8828   -0.3852   -2.5659 H         1 <0>         0.1036
     49 H17        -0.0444    1.1786   -2.4249 H         1 <0>         0.0969
     50 H18        -0.4854    0.6367   -5.0277 H         1 <0>         0.4006
     51 H19         2.0894    0.3712   -6.1578 H         1 <0>         0.0696
     52 H20         1.2509   -1.1926   -6.2988 H         1 <0>         0.0680
     53 H21        -0.6360   -0.0764   -7.4573 H         1 <0>         0.0791
     54 H22         0.2024    1.4874   -7.3163 H         1 <0>         0.0814
     55 H23         2.1950    1.9506   -8.6214 H         1 <0>         0.1279
     56 H24         3.4564    1.4699  -10.6794 H         1 <0>         0.1367
     57 H25         0.1793   -1.7921   -8.9658 H         1 <0>         0.1355
     58 H26         0.3523   -4.3061  -11.2436 H         1 <0>         0.1018
     59 H27         0.7280   -3.7036   -9.6114 H         1 <0>         0.0552
     60 H28        -0.5482   -2.9234  -10.5762 H         1 <0>         0.0550
     61 H29         4.6424   -0.0478  -13.4773 H         1 <0>         0.1016
     62 H30         3.6319    1.2254  -12.7522 H         1 <0>         0.0553
     63 H31         4.9085    0.4454  -11.7879 H         1 <0>         0.0555
     64 H32        -0.0546   -3.5810   -1.6268 H         1 <0>         0.3726
     65 H33         0.1774    1.2711    4.0294 H         1 <0>         0.0700
     66 H34         1.4880    1.4470    2.8379 H         1 <0>         0.0567
     67 H35        -0.1884    1.8325    2.3803 H         1 <0>         0.0612
     68 H36         0.6977   -2.1985    3.4262 H         1 <0>         0.0613
     69 H37         1.9346   -0.9467    3.6933 H         1 <0>         0.0367
     70 H38         0.6117   -1.3218    5.6465 H         1 <0>         0.3771
     71 H39        -2.3843   -2.2809    2.6282 H         1 <0>         0.3724
@<TRIPOS>BOND
     1    1    2 1
     2    1   37 1
     3    1   38 1
     4    1   39 1
     5    2    8 1
     6    2   14 1
     7    2    3 1
     8    3    4 1
     9    3   40 1
    10    3   41 1
    11    4    5 1
    12    4   42 1
    13    4   43 1
    14    5    6 1
    15    5    7 1
    16    5   36 1
    17    7    8 1
    18    7   33 1
    19    7   34 1
    20    8    9 1
    21    8   10 1
    22   10   11 1
    23   10   44 1
    24   10   45 1
    25   11   12 1
    26   11   46 1
    27   11   47 1
    28   12   13 1
    29   12   14 1
    30   12   32 1
    31   14   15 1
    32   14   16 1
    33   16   17 1
    34   16   48 1
    35   16   49 1
    36   17   18 2
    37   17   19 am
    38   19   20 1
    39   19   50 1
    40   20   21 1
    41   20   51 1
    42   20   52 1
    43   21   22 1
    44   21   53 1
    45   21   54 1
    46   22   27 ar
    47   22   23 ar
    48   23   24 ar
    49   23   55 1
    50   24   25 ar
    51   24   56 1
    52   25   26 ar
    53   25   30 1
    54   26   27 ar
    55   26   28 1
    56   27   57 1
    57   28   29 1
    58   29   58 1
    59   29   59 1
    60   29   60 1
    61   30   31 1
    62   31   61 1
    63   31   62 1
    64   31   63 1
    65   32   64 1
    66   33   65 1
    67   33   66 1
    68   33   67 1
    69   34   35 1
    70   34   68 1
    71   34   69 1
    72   35   70 1
    73   36   71 1
@<TRIPOS>MOLECULE
ZINC52539495
   39    40     0     0     0
SMALL
USER_CHARGES

@<TRIPOS>ATOM
      1 C1         -0.0157    1.3058    0.0092 C.2       1 <0>        -0.1476
      2 C2          0.0021   -0.0041    0.0020 C.2       1 <0>        -0.1932
      3 C3          1.3172   -0.7397   -0.0145 C.3       1 <0>         0.1514
      4 N1          1.3674   -1.6756    1.1115 N.pl3     1 <0>        -0.6814
      5 C4          2.4568   -2.4468    1.2987 C.2       1 <0>         0.5598
      6 S1          3.7818   -2.3328    0.2207 S.2       1 <0>        -0.5940
      7 N2          2.5029   -3.3078    2.3346 N.pl3     1 <0>        -0.4695
      8 N3          1.4186   -3.4011    3.2168 N.am      1 <0>        -0.5547
      9 C5          1.4648   -4.2621    4.2527 C.2       1 <0>         0.5229
     10 O1          2.4450   -4.9561    4.4211 O.2       1 <0>        -0.4957
     11 C6          0.2984   -4.3625    5.2016 C.3       1 <0>        -0.0512
     12 C7          0.6007   -5.3893    6.2623 C.2       1 <0>         0.0957
     13 C8          0.5302   -5.0861    7.5817 C.2       1 <0>        -0.2722
     14 S2          0.9807   -6.6537    8.3080 S.3       1 <0>         0.2350
     15 C9          1.2076   -7.5152    6.8802 C.2       1 <0>         0.2526
     16 N4          0.9407   -6.6258    5.9481 N.2       1 <0>        -0.5308
     17 N5          1.5806   -8.8438    6.7238 N.am      1 <0>        -0.6078
     18 C10         1.8091   -9.6116    7.8076 C.2       1 <0>         0.6129
     19 O2          1.6884   -9.1407    8.9234 O.2       1 <0>        -0.4882
     20 C11         2.2027  -11.0133    7.6427 C.2       1 <0>        -0.2745
     21 C12         2.4758  -11.9648    8.6141 C.2       1 <0>        -0.0458
     22 C13         2.8230  -13.2103    8.1486 C.2       1 <0>        -0.1886
     23 C14         2.8748  -13.4230    6.8103 C.2       1 <0>        -0.2069
     24 S3          2.4477  -11.9424    6.1411 S.3       1 <0>         0.2221
     25 H1          0.9122    1.8585    0.0033 H         1 <0>         0.1049
     26 H2         -0.9582    1.8330    0.0166 H         1 <0>         0.1076
     27 H3         -0.9258   -0.5567    0.0079 H         1 <0>         0.1168
     28 H4          1.4134   -1.2911   -0.9498 H         1 <0>         0.0992
     29 H5          2.1349   -0.0241    0.0711 H         1 <0>         0.0949
     30 H6          0.6167   -1.7402    1.7223 H         1 <0>         0.3922
     31 H7          3.2870   -3.8628    2.4693 H         1 <0>         0.4589
     32 H8          0.6346   -2.8460    3.0820 H         1 <0>         0.4189
     33 H9          0.1280   -3.3939    5.6716 H         1 <0>         0.1211
     34 H10        -0.5935   -4.6609    4.6507 H         1 <0>         0.1184
     35 H11         0.2725   -4.1534    8.0613 H         1 <0>         0.1983
     36 H12         1.6768   -9.2191    5.8345 H         1 <0>         0.4239
     37 H13         2.4196  -11.7411    9.6691 H         1 <0>         0.1551
     38 H14         3.0518  -14.0086    8.8390 H         1 <0>         0.1449
     39 H15         3.1289  -14.3363    6.2930 H         1 <0>         0.1945
@<TRIPOS>BOND
     1    1    2 2
     2    1   25 1
     3    1   26 1
     4    2    3 1
     5    2   27 1
     6    3    4 1
     7    3   28 1
     8    3   29 1
     9    4    5 1
    10    4   30 1
    11    5    6 2
    12    5    7 1
    13    7    8 1
    14    7   31 1
    15    8    9 am
    16    8   32 1
    17    9   10 2
    18    9   11 1
    19   11   12 1
    20   11   33 1
    21   11   34 1
    22   12   16 1
    23   12   13 2
    24   13   14 1
    25   13   35 1
    26   14   15 1
    27   15   16 2
    28   15   17 1
    29   17   18 am
    30   17   36 1
    31   18   19 2
    32   18   20 1
    33   20   24 1
    34   20   21 2
    35   21   22 1
    36   21   37 1
    37   22   23 2
    38   22   38 1
    39   23   24 1
    40   23   39 1
@<TRIPOS>MOLECULE
ZINC63481442
   46    47     0     0     0
SMALL
USER_CHARGES

@<TRIPOS>ATOM
      1 C1          0.0691    1.7385   -0.0999 C.3       1 <0>        -0.1525
      2 C2          0.0580    0.2085   -0.0938 C.3       1 <0>         0.0575
      3 O1          0.7251   -0.2773   -1.2604 O.3       1 <0>        -0.3446
      4 C3          0.8034   -1.6145   -1.4082 C.2       1 <0>         0.5470
      5 O2          0.3184   -2.3480   -0.5693 O.2       1 <0>        -0.4936
      6 C4          1.4766   -2.1870   -2.5864 C.2       1 <0>        -0.2175
      7 C5          2.8436   -2.5228   -2.6892 C.2       1 <0>         0.0006
      8 C6          3.0368   -3.0239   -3.9585 C.2       1 <0>        -0.0989
      9 N1          1.8246   -2.9974   -4.6175 N.pl3     1 <0>        -0.5146
     10 H1          1.6743   -3.2946   -5.5286 H         1 <0>         0.4259
     11 C7          0.8859   -2.5021   -3.7978 C.2       1 <0>         0.1359
     12 C8         -0.5699   -2.3162   -4.1400 C.3       1 <0>        -0.1046
     13 C9          4.2639   -3.4850   -4.4926 C.2       1 <0>         0.4141
     14 O3          5.2697   -3.4590   -3.8131 O.2       1 <0>        -0.4295
     15 C10         4.3218   -4.0082   -5.9047 C.3       1 <0>         0.0628
     16 N2          5.6925   -4.4204   -6.2169 N.pl3     1 <0>        -0.7114
     17 C11         5.9935   -4.9393   -7.4701 C.ar      1 <0>         0.2837
     18 C12         4.9795   -5.1728   -8.3909 C.ar      1 <0>        -0.2024
     19 C13         5.2803   -5.6885   -9.6346 C.ar      1 <0>        -0.0264
     20 C14         6.5932   -5.9772   -9.9762 C.ar      1 <0>        -0.1068
     21 C15         7.6123   -5.7517   -9.0758 C.ar      1 <0>        -0.0213
     22 C16         7.3236   -5.2247   -7.8141 C.ar      1 <0>        -0.2190
     23 C17         8.4094   -4.9752   -6.8484 C.2       1 <0>         0.5752
     24 O4          8.1459   -4.6192   -5.7159 O.2       1 <0>        -0.5418
     25 N3          9.6939   -5.1419   -7.2207 N.am      1 <0>        -0.8474
     26 Cl1         6.9547   -6.6263  -11.5451 Cl        1 <0>        -0.0698
     27 C18         3.8909   -2.3631   -1.6174 C.3       1 <0>        -0.1044
     28 H2          1.0993    2.0944   -0.1041 H         1 <0>         0.0675
     29 H3         -0.4445    2.1019   -0.9900 H         1 <0>         0.0669
     30 H4         -0.4398    2.1091    0.7899 H         1 <0>         0.0809
     31 H5          0.5716   -0.1549    0.7963 H         1 <0>         0.0692
     32 H6         -0.9722   -0.1474   -0.0896 H         1 <0>         0.0690
     33 H7         -0.7190   -1.3246   -4.5672 H         1 <0>         0.0923
     34 H8         -0.8725   -3.0729   -4.8638 H         1 <0>         0.0822
     35 H9         -1.1712   -2.4167   -3.2364 H         1 <0>         0.0894
     36 H10         3.6538   -4.8639   -6.0028 H         1 <0>         0.0963
     37 H11         4.0119   -3.2242   -6.5956 H         1 <0>         0.0966
     38 H12         6.3899   -4.3311   -5.5487 H         1 <0>         0.4321
     39 H13         3.9547   -4.9507   -8.1325 H         1 <0>         0.1361
     40 H14         4.4884   -5.8689  -10.3465 H         1 <0>         0.1387
     41 H15         8.6330   -5.9785   -9.3464 H         1 <0>         0.1362
     42 H16         9.9041   -5.4259   -8.1240 H         1 <0>         0.4023
     43 H17        10.4082   -4.9778   -6.5853 H         1 <0>         0.4080
     44 H18         3.9368   -3.2711   -1.0161 H         1 <0>         0.0812
     45 H19         4.8612   -2.1851   -2.0812 H         1 <0>         0.0912
     46 H20         3.6324   -1.5178   -0.9798 H         1 <0>         0.0678
@<TRIPOS>BOND
     1    1    2 1
     2    1   28 1
     3    1   29 1
     4    1   30 1
     5    2    3 1
     6    2   31 1
     7    2   32 1
     8    3    4 1
     9    4    5 2
    10    4    6 1
    11    6   11 2
    12    6    7 1
    13    7    8 2
    14    7   27 1
    15    8    9 1
    16    8   13 1
    17    9   10 1
    18    9   11 1
    19   11   12 1
    20   12   33 1
    21   12   34 1
    22   12   35 1
    23   13   14 2
    24   13   15 1
    25   15   16 1
    26   15   36 1
    27   15   37 1
    28   16   17 1
    29   16   38 1
    30   17   22 ar
    31   17   18 ar
    32   18   19 ar
    33   18   39 1
    34   19   20 ar
    35   19   40 1
    36   20   21 ar
    37   20   26 1
    38   21   22 ar
    39   21   41 1
    40   22   23 1
    41   23   24 2
    42   23   25 am
    43   25   42 1
    44   25   43 1
    45   27   44 1
    46   27   45 1
    47   27   46 1
@<TRIPOS>MOLECULE
ZINC67145177
   53    55     0     0     0
SMALL
USER_CHARGES

@<TRIPOS>ATOM
      1 C1          0.1952   -2.7540   -4.0802 C.3       1 <0>        -0.1395
      2 C2         -0.2003   -1.8609   -2.9025 C.3       1 <0>        -0.1428
      3 C3         -1.4392   -2.4140   -2.2466 C.2       1 <0>         0.5103
      4 O1         -1.9550   -3.4232   -2.6784 O.2       1 <0>        -0.5187
      5 N1         -1.9740   -1.7872   -1.1800 N.am      1 <0>        -0.6757
      6 C4         -3.1770   -2.2442   -0.6305 C.ar      1 <0>         0.1583
      7 C5         -4.0920   -1.3379   -0.1092 C.ar      1 <0>        -0.1578
      8 C6         -5.2801   -1.7882    0.4330 C.ar      1 <0>        -0.0835
      9 C7         -5.5623   -3.1406    0.4591 C.ar      1 <0>        -0.1337
     10 C8         -4.6517   -4.0518   -0.0605 C.ar      1 <0>         0.1594
     11 C9         -3.4598   -3.6022   -0.6110 C.ar      1 <0>        -0.1471
     12 N2         -4.9382   -5.4211   -0.0337 N.am      1 <0>        -0.6746
     13 C10        -6.2060   -5.8477   -0.1990 C.2       1 <0>         0.5132
     14 O2         -7.1097   -5.0436   -0.2872 O.2       1 <0>        -0.5178
     15 C11        -6.5006   -7.3237   -0.2744 C.3       1 <0>        -0.1395
     16 C12        -8.0042   -7.5347   -0.4626 C.3       1 <0>        -0.1036
     17 C13        -8.3033   -9.0332   -0.5391 C.3       1 <0>        -0.1199
     18 C14        -9.8070   -9.2442   -0.7273 C.3       1 <0>        -0.1030
     19 C15       -10.1060  -10.7427   -0.8038 C.3       1 <0>        -0.0226
     20 H1         -9.5052  -11.2227   -1.5763 H         1 <0>         0.1146
     21 C16       -11.5762  -10.9943   -1.0222 C.3       1 <0>         0.0991
     22 H2        -12.1192  -10.2743   -0.4100 H         1 <0>         0.0766
     23 C17       -11.9321  -12.3971   -0.4400 C.3       1 <0>         0.0980
     24 H3        -11.3420  -13.1655   -0.9394 H         1 <0>         0.0948
     25 C18       -11.5549  -12.3301    1.0382 C.3       1 <0>        -0.0597
     26 S1         -9.8590  -11.5599    0.8413 S.3       1 <0>        -0.2615
     27 N3        -13.3113  -12.4825   -0.8639 N.am      1 <0>        -0.7351
     28 C19       -13.3695  -11.8098   -2.0523 C.2       1 <0>         0.7104
     29 O3        -14.3078  -11.8822   -2.8221 O.2       1 <0>        -0.5546
     30 N4        -12.2542  -11.0648   -2.2826 N.am      1 <0>        -0.7251
     31 H4          1.0913   -2.3540   -4.5547 H         1 <0>         0.0649
     32 H5          0.3946   -3.7632   -3.7199 H         1 <0>         0.0625
     33 H6         -0.6184   -2.7811   -4.8050 H         1 <0>         0.0628
     34 H7          0.6134   -1.8338   -2.1778 H         1 <0>         0.0973
     35 H8         -0.3997   -0.8517   -3.2628 H         1 <0>         0.0976
     36 H9         -1.5249   -1.0193   -0.7932 H         1 <0>         0.4129
     37 H10        -3.8740   -0.2803   -0.1275 H         1 <0>         0.1268
     38 H11        -5.9897   -1.0817    0.8376 H         1 <0>         0.1310
     39 H12        -6.4917   -3.4896    0.8843 H         1 <0>         0.1402
     40 H13        -2.7521   -4.3083   -1.0197 H         1 <0>         0.1419
     41 H14        -4.2244   -6.0634    0.1038 H         1 <0>         0.4118
     42 H15        -5.9643   -7.7586   -1.1178 H         1 <0>         0.0980
     43 H16        -6.1787   -7.8060    0.6485 H         1 <0>         0.0985
     44 H17        -8.5405   -7.0997    0.3808 H         1 <0>         0.0735
     45 H18        -8.3261   -7.0523   -1.3855 H         1 <0>         0.0719
     46 H19        -7.7670   -9.4681   -1.3825 H         1 <0>         0.0661
     47 H20        -7.9814   -9.5155    0.3839 H         1 <0>         0.0719
     48 H21       -10.3432   -8.8092    0.1161 H         1 <0>         0.0802
     49 H22       -10.1288   -8.7618   -1.6502 H         1 <0>         0.0794
     50 H23       -12.2406  -11.6939    1.5978 H         1 <0>         0.1069
     51 H24       -11.4862  -13.3246    1.4792 H         1 <0>         0.1193
     52 H25       -14.0414  -12.9243   -0.4026 H         1 <0>         0.4330
     53 H26       -11.9827  -10.6624   -3.1225 H         1 <0>         0.4325
@<TRIPOS>BOND
     1    1    2 1
     2    1   31 1
     3    1   32 1
     4    1   33 1
     5    2    3 1
     6    2   34 1
     7    2   35 1
     8    3    4 2
     9    3    5 am
    10    5    6 1
    11    5   36 1
    12    6   11 ar
    13    6    7 ar
    14    7    8 ar
    15    7   37 1
    16    8    9 ar
    17    8   38 1
    18    9   10 ar
    19    9   39 1
    20   10   11 ar
    21   10   12 1
    22   11   40 1
    23   12   13 am
    24   12   41 1
    25   13   14 2
    26   13   15 1
    27   15   16 1
    28   15   42 1
    29   15   43 1
    30   16   17 1
    31   16   44 1
    32   16   45 1
    33   17   18 1
    34   17   46 1
    35   17   47 1
    36   18   19 1
    37   18   48 1
    38   18   49 1
    39   19   20 1
    40   19   26 1
    41   19   21 1
    42   21   22 1
    43   21   30 1
    44   21   23 1
    45   23   24 1
    46   23   25 1
    47   23   27 1
    48   25   26 1
    49   25   50 1
    50   25   51 1
    51   27   28 am
    52   27   52 1
    53   28   29 2
    54   28   30 am
    55   30   53 1
@<TRIPOS>MOLECULE
ZINC15707689
   59    62     0     0     0
SMALL
USER_CHARGES
3-[(4R,7S,8aS)-7-(cyclopropylcarbamothioylamino)-1-oxo-3,4,6,7,8,8a-hexahydro-2H-pyrrolo[2,1-f]pyrazin-4-yl]-N-[(4-fluorophenyl)methyl]propanamide
@<TRIPOS>ATOM
      1 C1          7.3497   -0.6013   -2.6780 C.ar      1 <0>        -0.0691
      2 C2          8.0678   -1.2367   -3.6732 C.ar      1 <0>        -0.1547
      3 C3          8.1897   -0.6491   -4.9210 C.ar      1 <0>         0.1150
      4 C4          7.5866    0.5717   -5.1720 C.ar      1 <0>        -0.1550
      5 C5          6.8639    1.2024   -4.1771 C.ar      1 <0>        -0.0696
      6 C6          6.7432    0.6150   -2.9315 C.ar      1 <0>        -0.1321
      7 C7          5.9552    1.3039   -1.8473 C.3       1 <0>         0.1631
      8 N1          4.5557    0.8760   -1.9139 N.am      1 <0>        -0.7213
      9 C8          3.6588    1.3656   -1.0351 C.2       1 <0>         0.5122
     10 O1          4.0104    2.1605   -0.1892 O.2       1 <0>        -0.5354
     11 C9          2.2192    0.9255   -1.1035 C.3       1 <0>        -0.1422
     12 C10         1.4191    1.6249   -0.0028 C.3       1 <0>        -0.1229
     13 C11        -0.0128    1.0861    0.0078 C.3       1 <0>         0.0306
     14 H1          0.0014   -0.0012    0.0834 H         1 <0>         0.1545
     15 C12        -0.7394    1.5103   -1.2771 C.3       1 <0>         0.0813
     16 N2         -2.1893    1.4387   -1.1332 N.am      1 <0>        -0.7277
     17 C13        -2.8362    1.2416    0.0311 C.2       1 <0>         0.5114
     18 O2         -4.0464    1.3057    0.0788 O.2       1 <0>        -0.4702
     19 C14        -2.0459    0.9433    1.2643 C.3       1 <0>         0.0182
     20 H2         -1.8914   -0.1289    1.3850 H         1 <0>         0.1846
     21 C15        -0.1457    1.6164    2.4590 C.3       1 <0>        -0.0159
     22 C16        -1.3361    1.6283    3.4522 C.3       1 <0>         0.1340
     23 H3         -1.2879    0.7620    4.1120 H         1 <0>         0.1610
     24 C17        -2.6060    1.5562    2.5570 C.3       1 <0>        -0.1373
     25 N3         -1.3327    2.8657    4.2365 N.pl3     1 <0>        -0.6969
     26 C18        -0.6048    2.9443    5.3681 C.2       1 <0>         0.5585
     27 S1          0.3159    1.5982    5.8889 S.2       1 <0>        -0.6029
     28 N4         -0.6017    4.0826    6.0896 N.pl3     1 <0>        -0.6416
     29 C19         0.1896    4.1681    7.3196 C.3       1 <0>         0.0598
     30 C20        -0.4655    4.8238    8.5369 C.3       1 <0>        -0.1778
     31 C21         0.6399    5.5577    7.7749 C.3       1 <0>        -0.1781
     32 F1          8.8969   -1.2663   -5.8927 F         1 <0>        -0.1329
     33 H4          7.2587   -1.0569   -1.7031 H         1 <0>         0.1354
     34 H5          8.5375   -2.1891   -3.4764 H         1 <0>         0.1410
     35 H6          7.6813    1.0312   -6.1448 H         1 <0>         0.1408
     36 H7          6.3934    2.1546   -4.3727 H         1 <0>         0.1348
     37 H8          6.0122    2.3834   -1.9869 H         1 <0>         0.0823
     38 H9          6.3697    1.0410   -0.8741 H         1 <0>         0.0829
     39 H10         4.2746    0.2403   -2.5904 H         1 <0>         0.4052
     40 H11         2.1622   -0.1540   -0.9639 H         1 <0>         0.1090
     41 H12         1.8047    1.1884   -2.0768 H         1 <0>         0.1069
     42 H13         1.4021    2.6982   -0.1921 H         1 <0>         0.1005
     43 H14         1.8864    1.4338    0.9633 H         1 <0>         0.1095
     44 H15        -0.4577    2.5344   -1.5216 H         1 <0>         0.1045
     45 H16        -0.4301    0.8554   -2.0916 H         1 <0>         0.1255
     46 H17        -2.7261    1.5400   -1.9347 H         1 <0>         0.4268
     47 H18         0.4416    0.7070    2.5859 H         1 <0>         0.1614
     48 H19         0.4823    2.4941    2.6113 H         1 <0>         0.1447
     49 H20        -3.3600    0.9067    3.0016 H         1 <0>         0.1419
     50 H21        -3.0107    2.5516    2.3737 H         1 <0>         0.1093
     51 H22        -1.8544    3.6284    3.9415 H         1 <0>         0.4034
     52 H23        -1.1233    4.8453    5.7946 H         1 <0>         0.4017
     53 H24         0.8683    3.3346    7.5008 H         1 <0>         0.1717
     54 H25        -1.4851    5.1917    8.4226 H         1 <0>         0.0995
     55 H26        -0.2179    4.4218    9.5193 H         1 <0>         0.1154
     56 H27         1.6146    5.6384    8.2559 H         1 <0>         0.1160
     57 H28         0.3474    6.4083    7.1592 H         1 <0>         0.0991
     58 N5         -0.8133    1.6746    1.1414 N.4       1 <0>        -0.3994
     59 H29        -1.0126    2.6569    0.9189 H         1 <0>         0.4296
@<TRIPOS>BOND
     1    1    6 ar
     2    1    2 ar
     3    1   33 1
     4    2    3 ar
     5    2   34 1
     6    3    4 ar
     7    3   32 1
     8    4    5 ar
     9    4   35 1
    10    5    6 ar
    11    5   36 1
    12    6    7 1
    13    7    8 1
    14    7   37 1
    15    7   38 1
    16    8    9 am
    17    8   39 1
    18    9   10 2
    19    9   11 1
    20   11   12 1
    21   11   40 1
    22   11   41 1
    23   12   13 1
    24   12   42 1
    25   12   43 1
    26   13   14 1
    27   13   15 1
    28   13   58 1
    29   15   16 1
    30   15   44 1
    31   15   45 1
    32   16   17 am
    33   16   46 1
    34   17   18 2
    35   17   19 1
    36   19   20 1
    37   19   24 1
    38   19   58 1
    39   21   22 1
    40   21   47 1
    41   21   48 1
    42   21   58 1
    43   22   23 1
    44   22   24 1
    45   22   25 1
    46   24   49 1
    47   24   50 1
    48   25   26 1
    49   25   51 1
    50   26   27 2
    51   26   28 1
    52   28   29 1
    53   28   52 1
    54   29   31 1
    55   29   30 1
    56   29   53 1
    57   30   31 1
    58   30   54 1
    59   30   55 1
    60   31   56 1
    61   31   57 1
    62   58   59 1
@<TRIPOS>MOLECULE
ZINC26966233
   60    62     0     0     0
SMALL
USER_CHARGES
(1R)-2-[[1,1-dimethyl-2-[4-(phenylsulfamoylamino)phenyl]ethyl]amino]-1-(3-pyridyl)ethanol
@<TRIPOS>ATOM
      1 C1         -2.9148    3.0811   -2.4022 C.3       1 <0>        -0.1817
      2 C2         -2.8734    1.5517   -2.3993 C.3       1 <0>         0.0686
      3 C3         -2.1779    1.0578   -3.6694 C.3       1 <0>        -0.1826
      4 C4         -4.3009    1.0029   -2.3532 C.3       1 <0>        -0.0883
      5 C5         -5.0626    1.4825   -3.5619 C.ar      1 <0>        -0.1167
      6 C6         -5.7694    2.6697   -3.5055 C.ar      1 <0>        -0.0759
      7 C7         -6.4639    3.1150   -4.6130 C.ar      1 <0>        -0.1646
      8 C8         -6.4612    2.3630   -5.7810 C.ar      1 <0>         0.1851
      9 C9         -5.7548    1.1681   -5.8324 C.ar      1 <0>        -0.1298
     10 C10        -5.0578    0.7315   -4.7230 C.ar      1 <0>        -0.0827
     11 N1         -7.1676    2.8073   -6.9011 N.pl3     1 <0>        -1.0838
     12 S1         -8.7075    3.3921   -6.7305 S.o2      1 <0>         2.7853
     13 O1         -9.1394    3.7829   -8.0267 O.2       1 <0>        -0.9508
     14 O2         -9.4171    2.4445   -5.9446 O.2       1 <0>        -0.9569
     15 N2         -8.6082    4.7766   -5.8273 N.pl3     1 <0>        -1.0805
     16 C11        -7.9370    5.8928   -6.3317 C.ar      1 <0>         0.1578
     17 C12        -6.6987    5.7430   -6.9432 C.ar      1 <0>        -0.1696
     18 C13        -6.0400    6.8482   -7.4450 C.ar      1 <0>        -0.0897
     19 C14        -6.6068    8.1043   -7.3300 C.ar      1 <0>        -0.1293
     20 C15        -7.8370    8.2577   -6.7171 C.ar      1 <0>        -0.0913
     21 C16        -8.5035    7.1560   -6.2178 C.ar      1 <0>        -0.1300
     22 N3         -2.1309    1.0842   -1.2211 N.4       1 <0>        -0.5297
     23 C17        -0.7527    1.5927   -1.2315 C.3       1 <0>         0.0021
     24 C18        -0.0127    1.0858    0.0080 C.3       1 <0>         0.1526
     25 H1         -0.0163   -0.0128    0.0630 H         1 <0>         0.0855
     26 C19         1.4011    1.6074   -0.0027 C.ar      1 <0>        -0.2065
     27 C20         2.4300    0.8364   -0.5221 C.ar      1 <0>        -0.0581
     28 C21         3.7148    1.3569   -0.5111 C.ar      1 <0>        -0.1690
     29 C22         3.9261    2.6182    0.0135 C.ar      1 <0>         0.1214
     30 N4          2.9233    3.3233    0.4991 N.ar      1 <0>        -0.4798
     31 C23         1.6876    2.8624    0.4997 C.ar      1 <0>         0.1268
     32 O3         -0.6816    1.5467    1.1837 O.3       1 <0>        -0.6064
     33 H2         -3.4149    3.4361   -1.4890 H         1 <0>         0.0829
     34 H3         -3.4708    3.4312   -3.2844 H         1 <0>         0.1080
     35 H4         -1.8885    3.4756   -2.4353 H         1 <0>         0.0794
     36 H5         -2.1482   -0.0418   -3.6672 H         1 <0>         0.0820
     37 H6         -1.1516    1.4523   -3.7025 H         1 <0>         0.0791
     38 H7         -2.7339    1.4078   -4.5516 H         1 <0>         0.1088
     39 H8         -4.2711   -0.0967   -2.3511 H         1 <0>         0.0969
     40 H9         -4.8009    1.3579   -1.4400 H         1 <0>         0.0974
     41 H10        -5.7749    3.2515   -2.5955 H         1 <0>         0.1312
     42 H11        -7.0121    4.0445   -4.5697 H         1 <0>         0.1393
     43 H12        -5.7504    0.5812   -6.7391 H         1 <0>         0.1361
     44 H13        -4.5081   -0.1973   -4.7624 H         1 <0>         0.1304
     45 H14        -6.7010    2.7687   -7.8965 H         1 <0>         0.4585
     46 H15        -9.0708    4.8171   -4.8301 H         1 <0>         0.4536
     47 H16        -6.2534    4.7629   -7.0294 H         1 <0>         0.1289
     48 H17        -5.0791    6.7319   -7.9242 H         1 <0>         0.1287
     49 H18        -6.0875    8.9675   -7.7193 H         1 <0>         0.1285
     50 H19        -8.2770    9.2400   -6.6292 H         1 <0>         0.1313
     51 H20        -9.4641    7.2765   -5.7389 H         1 <0>         0.1309
     52 H21        -2.6310    1.4392   -0.3079 H         1 <0>         0.4571
     53 H22        -0.2378    1.2380   -2.1365 H         1 <0>         0.1413
     54 H23        -0.7676    2.6926   -1.2254 H         1 <0>         0.1382
     55 H24         2.2351   -0.1464   -0.9252 H         1 <0>         0.1379
     56 H25         4.5402    0.7843   -0.9077 H         1 <0>         0.1448
     57 H26         4.9240    3.0310    0.0254 H         1 <0>         0.1651
     58 H27         0.8911    3.4710    0.9016 H         1 <0>         0.1609
     59 H28        -0.2927    1.2807    2.1777 H         1 <0>         0.4464
     60 H29        -2.1012   -0.0154   -1.2190 H         1 <0>         0.4447
@<TRIPOS>BOND
     1    1    2 1
     2    1   33 1
     3    1   34 1
     4    1   35 1
     5    2    3 1
     6    2    4 1
     7    2   22 1
     8    3   36 1
     9    3   37 1
    10    3   38 1
    11    4    5 1
    12    4   39 1
    13    4   40 1
    14    5   10 ar
    15    5    6 ar
    16    6    7 ar
    17    6   41 1
    18    7    8 ar
    19    7   42 1
    20    8    9 ar
    21    8   11 1
    22    9   10 ar
    23    9   43 1
    24   10   44 1
    25   11   12 1
    26   11   45 1
    27   12   13 2
    28   12   14 2
    29   12   15 1
    30   15   16 1
    31   15   46 1
    32   16   21 ar
    33   16   17 ar
    34   17   18 ar
    35   17   47 1
    36   18   19 ar
    37   18   48 1
    38   19   20 ar
    39   19   49 1
    40   20   21 ar
    41   20   50 1
    42   21   51 1
    43   22   23 1
    44   22   52 1
    45   22   60 1
    46   23   24 1
    47   23   53 1
    48   23   54 1
    49   24   25 1
    50   24   26 1
    51   24   32 1
    52   26   31 ar
    53   26   27 ar
    54   27   28 ar
    55   27   55 1
    56   28   29 ar
    57   28   56 1
    58   29   30 ar
    59   29   57 1
    60   30   31 ar
    61   31   58 1
    62   32   59 1
@<TRIPOS>MOLECULE
ZINC41593549
   61    62     0     0     0
SMALL
USER_CHARGES

@<TRIPOS>ATOM
      1 C1         -2.0035    1.6465    2.3271 C.3       1 <0>        -0.1531
      2 C2         -2.1117    0.1309    2.1474 C.3       1 <0>        -0.1050
      3 C3         -1.3195   -0.5736    3.2525 C.3       1 <0>        -0.1399
      4 C4         -1.3659   -2.0855    3.0211 C.3       1 <0>        -0.0211
      5 N1         -0.7753   -2.4027    1.7153 N.4       1 <0>        -0.3796
      6 C5         -1.5720   -1.7892    0.6461 C.3       1 <0>        -0.0360
      7 C6         -1.5335   -0.2659    0.7860 C.3       1 <0>        -0.1392
      8 C7         -0.7512   -3.8600    1.5314 C.3       1 <0>         0.0163
      9 H1         -0.3556   -4.0950    0.5433 H         1 <0>         0.1483
     10 C8         -2.1721   -4.4134    1.6567 C.3       1 <0>         0.0901
     11 N2         -2.9552   -4.0187    0.4832 N.am      1 <0>        -0.7245
     12 C9         -4.2509   -4.3767    0.3861 C.2       1 <0>         0.5140
     13 O1         -4.7690   -5.0259    1.2709 O.2       1 <0>        -0.4884
     14 C10        -5.0492   -3.9743   -0.8103 C.2       1 <0>         0.5044
     15 O2         -4.5311   -3.3250   -1.6953 O.2       1 <0>        -0.4967
     16 N3         -6.3449   -4.3323   -0.9074 N.am      1 <0>        -0.6263
     17 C11        -7.0737   -4.0134   -2.0561 C.ar      1 <0>         0.1412
     18 C12        -6.7061   -2.9217   -2.8332 C.ar      1 <0>        -0.1260
     19 C13        -7.4285   -2.6094   -3.9677 C.ar      1 <0>        -0.0984
     20 C14        -8.5169   -3.3817   -4.3309 C.ar      1 <0>        -0.1205
     21 C15        -8.8858   -4.4685   -3.5596 C.ar      1 <0>        -0.0852
     22 C16        -8.1639   -4.7903   -2.4269 C.ar      1 <0>        -0.0862
     23 C17        -8.5622   -5.9791   -1.5908 C.3       1 <0>        -0.1106
     24 C18        -9.4533   -5.5246   -0.4637 C.2       1 <0>         0.5104
     25 O3         -9.7370   -4.3509   -0.3505 O.2       1 <0>        -0.5288
     26 N4         -9.9351   -6.4225    0.4185 N.am      1 <0>        -0.8543
     27 C19         0.1394   -4.4944    2.6015 C.3       1 <0>        -0.1084
     28 C20         0.2665   -5.9956    2.3349 C.3       1 <0>        -0.1564
     29 C21         1.5263   -3.8496    2.5587 C.3       1 <0>        -0.1736
     30 H2         -2.5619    2.1469    1.5360 H         1 <0>         0.0681
     31 H3         -2.4153    1.9277    3.2963 H         1 <0>         0.0678
     32 H4         -0.9563    1.9444    2.2770 H         1 <0>         0.0625
     33 H5         -3.1585   -0.1686    2.2002 H         1 <0>         0.0876
     34 H6         -0.2840   -0.2338    3.2312 H         1 <0>         0.0894
     35 H7         -1.7601   -0.3400    4.2217 H         1 <0>         0.1138
     36 H8         -0.8030   -2.5902    3.8062 H         1 <0>         0.1356
     37 H9         -2.4017   -2.4243    3.0428 H         1 <0>         0.1304
     38 H10        -1.1613   -2.0752   -0.3222 H         1 <0>         0.1329
     39 H11        -2.6034   -2.1343    0.7184 H         1 <0>         0.1406
     40 H12        -2.1271    0.1876   -0.0077 H         1 <0>         0.1151
     41 H13        -0.5025    0.0803    0.7135 H         1 <0>         0.0899
     42 H14        -2.1342   -5.5009    1.7193 H         1 <0>         0.1243
     43 H15        -2.6396   -4.0137    2.5566 H         1 <0>         0.1029
     44 H16        -2.5411   -3.4998   -0.2241 H         1 <0>         0.4161
     45 H17        -6.7716   -4.8113   -0.1797 H         1 <0>         0.4210
     46 H18        -5.8566   -2.3180   -2.5500 H         1 <0>         0.1496
     47 H19        -7.1436   -1.7608   -4.5720 H         1 <0>         0.1305
     48 H20        -9.0802   -3.1352   -5.2187 H         1 <0>         0.1301
     49 H21        -9.7366   -5.0690   -3.8457 H         1 <0>         0.1308
     50 H22        -9.0990   -6.6964   -2.2117 H         1 <0>         0.1157
     51 H23        -7.6691   -6.4504   -1.1805 H         1 <0>         0.0996
     52 H24        -9.7082   -7.3612    0.3279 H         1 <0>         0.4037
     53 H25       -10.5086   -6.1300    1.1440 H         1 <0>         0.4057
     54 H26        -0.3046   -4.3363    3.5843 H         1 <0>         0.1013
     55 H27         0.7106   -6.1538    1.3521 H         1 <0>         0.0704
     56 H28         0.9010   -6.4476    3.0973 H         1 <0>         0.0827
     57 H29        -0.7215   -6.4550    2.3654 H         1 <0>         0.0703
     58 H30         1.4474   -2.7993    2.8392 H         1 <0>         0.0547
     59 H31         2.1875   -4.3634    3.2565 H         1 <0>         0.0916
     60 H32         1.9319   -3.9268    1.5500 H         1 <0>         0.0744
     61 H33         0.1676   -2.0454    1.6781 H         1 <0>         0.4243
@<TRIPOS>BOND
     1    1    2 1
     2    1   30 1
     3    1   31 1
     4    1   32 1
     5    2    7 1
     6    2    3 1
     7    2   33 1
     8    3    4 1
     9    3   34 1
    10    3   35 1
    11    4    5 1
    12    4   36 1
    13    4   37 1
    14    5    6 1
    15    5    8 1
    16    5   61 1
    17    6    7 1
    18    6   38 1
    19    6   39 1
    20    7   40 1
    21    7   41 1
    22    8    9 1
    23    8   10 1
    24    8   27 1
    25   10   11 1
    26   10   42 1
    27   10   43 1
    28   11   12 am
    29   11   44 1
    30   12   13 2
    31   12   14 1
    32   14   15 2
    33   14   16 am
    34   16   17 1
    35   16   45 1
    36   17   22 ar
    37   17   18 ar
    38   18   19 ar
    39   18   46 1
    40   19   20 ar
    41   19   47 1
    42   20   21 ar
    43   20   48 1
    44   21   22 ar
    45   21   49 1
    46   22   23 1
    47   23   24 1
    48   23   50 1
    49   23   51 1
    50   24   25 2
    51   24   26 am
    52   26   52 1
    53   26   53 1
    54   27   28 1
    55   27   29 1
    56   27   54 1
    57   28   55 1
    58   28   56 1
    59   28   57 1
    60   29   58 1
    61   29   59 1
    62   29   60 1
@<TRIPOS>MOLECULE
ZINC51062682
   61    63     0     0     0
SMALL
USER_CHARGES

@<TRIPOS>ATOM
      1 C1         -0.1163    1.4033   -0.0964 C.3       1 <0>        -0.1552
      2 C2         -0.0801   -0.1263   -0.0898 C.3       1 <0>        -0.1227
      3 C3          0.6637   -0.6134    1.1553 C.3       1 <0>        -0.1331
      4 C4          0.6999   -2.1430    1.1620 C.3       1 <0>         0.1144
      5 N1          1.4121   -2.6094    2.3542 N.am      1 <0>        -0.7186
      6 C5          1.5684   -3.9302    2.5722 C.2       1 <0>         0.5228
      7 O1          1.1195   -4.7326    1.7813 O.2       1 <0>        -0.5283
      8 C6          2.3010   -4.4100    3.7986 C.3       1 <0>        -0.1311
      9 H1          1.7868   -4.0552    4.6918 H         1 <0>         0.1216
     10 C7          3.7331   -3.8678    3.7836 C.3       1 <0>        -0.1299
     11 C8          4.4918   -4.4242    4.9920 C.3       1 <0>        -0.1408
     12 C9          4.4502   -5.9533    4.9535 C.3       1 <0>        -0.0127
     13 N2          3.0558   -6.4097    4.9969 N.4       1 <0>        -0.3787
     14 C10         2.3396   -5.9397    3.8049 C.3       1 <0>         0.0123
     15 C11         3.0237   -7.8778    5.0384 C.3       1 <0>         0.0767
     16 C12         3.6412   -8.3576    6.3266 C.ar      1 <0>         0.3813
     17 N3          4.9393   -8.5989    6.3855 N.ar      1 <0>        -0.6213
     18 C13         5.4884   -9.0223    7.5216 C.ar      1 <0>         0.6376
     19 N4          4.7297   -9.2023    8.5974 N.ar      1 <0>        -0.6175
     20 C14         3.4254   -8.9586    8.5343 C.ar      1 <0>         0.6367
     21 N5          2.8843   -8.5306    7.3957 N.ar      1 <0>        -0.6177
     22 N6          2.6323   -9.1446    9.6499 N.pl3     1 <0>        -0.6059
     23 C15         3.1770   -9.7053   10.8093 C.ar      1 <0>         0.1376
     24 C16         4.2929  -10.5285   10.7266 C.ar      1 <0>        -0.1169
     25 C17         4.8286  -11.0802   11.8735 C.ar      1 <0>        -0.1053
     26 C18         4.2551  -10.8143   13.1036 C.ar      1 <0>        -0.1213
     27 C19         3.1441   -9.9958   13.1895 C.ar      1 <0>        -0.0984
     28 C20         2.6070   -9.4358   12.0467 C.ar      1 <0>        -0.1061
     29 C21         1.3998   -8.5387   12.1418 C.3       1 <0>        -0.1191
     30 N7          6.8438   -9.2745    7.5820 N.pl3     1 <0>        -0.7896
     31 H2          0.9025    1.7908   -0.1069 H         1 <0>         0.0555
     32 H3         -0.6462    1.7503   -0.9835 H         1 <0>         0.0601
     33 H4         -0.6309    1.7584    0.7964 H         1 <0>         0.0555
     34 H5         -1.0988   -0.5138   -0.0793 H         1 <0>         0.0670
     35 H6          0.4346   -0.4814   -0.9826 H         1 <0>         0.0669
     36 H7          1.6825   -0.2259    1.1449 H         1 <0>         0.0709
     37 H8          0.1491   -0.2583    2.0482 H         1 <0>         0.0709
     38 H9         -0.3188   -2.5305    1.1724 H         1 <0>         0.0747
     39 H10         1.2146   -2.4981    0.2692 H         1 <0>         0.0747
     40 H11         1.7712   -1.9676    2.9868 H         1 <0>         0.4041
     41 H12         4.2312   -4.1794    2.8655 H         1 <0>         0.0921
     42 H13         3.7114   -2.7793    3.8365 H         1 <0>         0.0994
     43 H14         5.5279   -4.0873    4.9579 H         1 <0>         0.1188
     44 H15         4.0233   -4.0703    5.9103 H         1 <0>         0.0885
     45 H16         4.9191   -6.3061    4.0350 H         1 <0>         0.1377
     46 H17         4.9896   -6.3527    5.8124 H         1 <0>         0.1311
     47 H18         1.3213   -6.3284    3.8158 H         1 <0>         0.1443
     48 H19         2.8531   -6.2935    2.9109 H         1 <0>         0.1433
     49 H20         1.9905   -8.2204    4.9810 H         1 <0>         0.1616
     50 H21         3.5864   -8.2775    4.1947 H         1 <0>         0.1607
     51 H22         1.6976   -8.8863    9.6290 H         1 <0>         0.4299
     52 H23         4.7408  -10.7370    9.7662 H         1 <0>         0.1456
     53 H24         5.6962  -11.7202   11.8098 H         1 <0>         0.1279
     54 H25         4.6758  -11.2474   13.9991 H         1 <0>         0.1282
     55 H26         2.6984   -9.7905   14.1515 H         1 <0>         0.1311
     56 H27         0.4937   -9.1390   12.0593 H         1 <0>         0.0758
     57 H28         1.4066   -8.0210   13.1010 H         1 <0>         0.0776
     58 H29         1.4260   -7.8074   11.3340 H         1 <0>         0.0592
     59 H30         7.3970   -9.1432    6.7961 H         1 <0>         0.4247
     60 H31         7.2433   -9.5830    8.4103 H         1 <0>         0.4265
     61 H32         2.6082   -6.0421    5.8230 H         1 <0>         0.4247
@<TRIPOS>BOND
     1    1    2 1
     2    1   31 1
     3    1   32 1
     4    1   33 1
     5    2    3 1
     6    2   34 1
     7    2   35 1
     8    3    4 1
     9    3   36 1
    10    3   37 1
    11    4    5 1
    12    4   38 1
    13    4   39 1
    14    5    6 am
    15    5   40 1
    16    6    7 2
    17    6    8 1
    18    8    9 1
    19    8   14 1
    20    8   10 1
    21   10   11 1
    22   10   41 1
    23   10   42 1
    24   11   12 1
    25   11   43 1
    26   11   44 1
    27   12   13 1
    28   12   45 1
    29   12   46 1
    30   13   14 1
    31   13   15 1
    32   13   61 1
    33   14   47 1
    34   14   48 1
    35   15   16 1
    36   15   49 1
    37   15   50 1
    38   16   21 ar
    39   16   17 ar
    40   17   18 ar
    41   18   19 ar
    42   18   30 1
    43   19   20 ar
    44   20   21 ar
    45   20   22 1
    46   22   23 1
    47   22   51 1
    48   23   28 ar
    49   23   24 ar
    50   24   25 ar
    51   24   52 1
    52   25   26 ar
    53   25   53 1
    54   26   27 ar
    55   26   54 1
    56   27   28 ar
    57   27   55 1
    58   28   29 1
    59   29   56 1
    60   29   57 1
    61   29   58 1
    62   30   59 1
    63   30   60 1
@<TRIPOS>MOLECULE
ZINC67634733
   60    61     0     0     0
SMALL
USER_CHARGES

@<TRIPOS>ATOM
      1 C1         -0.0187    1.5258    0.0104 C.3       1 <0>        -0.1545
      2 C2          0.0021   -0.0041    0.0020 C.3       1 <0>        -0.1046
      3 C3         -1.4339   -0.5358    0.0229 C.3       1 <0>        -0.1435
      4 C4         -1.4051   -2.0640    0.0946 C.3       1 <0>        -0.0066
      5 N1         -0.7073   -2.4871    1.3147 N.4       1 <0>        -0.3781
      6 C5          0.6906   -2.0421    1.2688 C.3       1 <0>        -0.0127
      7 C6          0.7425   -0.5130    1.2422 C.3       1 <0>        -0.1421
      8 C7         -0.7502   -3.9518    1.4187 C.3       1 <0>        -0.0430
      9 C8         -0.1338   -4.3869    2.7497 C.3       1 <0>         0.0713
     10 H1          0.8713   -3.9743    2.8367 H         1 <0>         0.1298
     11 C9         -0.0645   -5.9144    2.8045 C.3       1 <0>         0.1118
     12 N2          0.5257   -6.3310    4.0790 N.am      1 <0>        -0.7459
     13 C10         0.6870   -7.6412    4.3506 C.2       1 <0>         0.7054
     14 O1          0.3426   -8.4774    3.5379 O.2       1 <0>        -0.5816
     15 N3          1.2300   -8.0245    5.5231 N.am      1 <0>        -0.7408
     16 C11         1.4053   -9.4486    5.8184 C.3       1 <0>         0.1392
     17 C12         2.0378   -9.6085    7.2024 C.3       1 <0>        -0.1439
     18 C13         2.2209  -11.0959    7.5107 C.3       1 <0>         0.1227
     19 N4          2.8264  -11.2489    8.8359 N.am      1 <0>        -0.7286
     20 C14         3.0826  -12.4797    9.3217 C.2       1 <0>         0.5592
     21 O2          2.8111  -13.4629    8.6602 O.2       1 <0>        -0.5171
     22 C15         3.6931  -12.6340   10.6576 C.ar      1 <0>        -0.1799
     23 C16         4.0010  -11.5070   11.4229 C.ar      1 <0>        -0.0593
     24 C17         4.5703  -11.6580   12.6693 C.ar      1 <0>        -0.1391
     25 C18         4.8381  -12.9229   13.1646 C.ar      1 <0>        -0.0593
     26 C19         4.5374  -14.0443   12.4148 C.ar      1 <0>        -0.1628
     27 C20         3.9603  -13.9092   11.1650 C.ar      1 <0>         0.1620
     28 F1          3.6613  -15.0057   10.4345 F         1 <0>        -0.1128
     29 O3         -0.9405   -3.9077    3.8275 O.3       1 <0>        -0.5507
     30 H2          1.0039    1.9031    0.0027 H         1 <0>         0.0677
     31 H3         -0.5459    1.8868   -0.8726 H         1 <0>         0.0678
     32 H4         -0.5289    1.8773    0.9072 H         1 <0>         0.0622
     33 H5          0.5096   -0.3568   -0.8958 H         1 <0>         0.0888
     34 H6         -1.9559   -0.1403    0.8942 H         1 <0>         0.0888
     35 H7         -1.9508   -0.2237   -0.8846 H         1 <0>         0.1135
     36 H8         -2.4259   -2.4459    0.1094 H         1 <0>         0.1309
     37 H9         -0.8832   -2.4585   -0.7772 H         1 <0>         0.1295
     38 H10         1.2170   -2.4078    2.1504 H         1 <0>         0.1297
     39 H11         1.1679   -2.4370    0.3719 H         1 <0>         0.1299
     40 H12         1.7812   -0.1846    1.2063 H         1 <0>         0.1128
     41 H13         0.2657   -0.1170    2.1388 H         1 <0>         0.0892
     42 H14        -1.7855   -4.2894    1.3701 H         1 <0>         0.1400
     43 H15        -0.1859   -4.3911    0.5961 H         1 <0>         0.1445
     44 H16        -1.0696   -6.3270    2.7175 H         1 <0>         0.0814
     45 H17         0.5508   -6.2799    1.9824 H         1 <0>         0.0867
     46 H18         0.8004   -5.6638    4.7274 H         1 <0>         0.4028
     47 H19         1.5047   -7.3573    6.1715 H         1 <0>         0.3986
     48 H20         0.4351   -9.9451    5.8028 H         1 <0>         0.0752
     49 H21         2.0555   -9.8980    5.0677 H         1 <0>         0.0752
     50 H22         3.0080   -9.1121    7.2180 H         1 <0>         0.0790
     51 H23         1.3876   -9.1591    7.9530 H         1 <0>         0.0791
     52 H24         1.2506  -11.5923    7.4951 H         1 <0>         0.0760
     53 H25         2.8710  -11.5452    6.7600 H         1 <0>         0.0759
     54 H26         3.0430  -10.4644    9.3637 H         1 <0>         0.3999
     55 H27         3.7939  -10.5191   11.0388 H         1 <0>         0.1336
     56 H28         4.8085  -10.7866   13.2613 H         1 <0>         0.1381
     57 H29         5.2845  -13.0339   14.1417 H         1 <0>         0.1412
     58 H30         4.7497  -15.0279   12.8071 H         1 <0>         0.1460
     59 H31        -1.8502   -4.2352    3.8137 H         1 <0>         0.3942
     60 H32        -1.1621   -2.0815    2.1189 H         1 <0>         0.4269
@<TRIPOS>BOND
     1    1    2 1
     2    1   30 1
     3    1   31 1
     4    1   32 1
     5    2    7 1
     6    2    3 1
     7    2   33 1
     8    3    4 1
     9    3   34 1
    10    3   35 1
    11    4    5 1
    12    4   36 1
    13    4   37 1
    14    5    6 1
    15    5    8 1
    16    5   60 1
    17    6    7 1
    18    6   38 1
    19    6   39 1
    20    7   40 1
    21    7   41 1
    22    8    9 1
    23    8   42 1
    24    8   43 1
    25    9   10 1
    26    9   11 1
    27    9   29 1
    28   11   12 1
    29   11   44 1
    30   11   45 1
    31   12   13 am
    32   12   46 1
    33   13   14 2
    34   13   15 am
    35   15   16 1
    36   15   47 1
    37   16   17 1
    38   16   48 1
    39   16   49 1
    40   17   18 1
    41   17   50 1
    42   17   51 1
    43   18   19 1
    44   18   52 1
    45   18   53 1
    46   19   20 am
    47   19   54 1
    48   20   21 2
    49   20   22 1
    50   22   27 ar
    51   22   23 ar
    52   23   24 ar
    53   23   55 1
    54   24   25 ar
    55   24   56 1
    56   25   26 ar
    57   25   57 1
    58   26   27 ar
    59   26   58 1
    60   27   28 1
    61   29   59 1
@<TRIPOS>MOLECULE
ZINC40783934
   40    41     0     0     0
SMALL
USER_CHARGES

@<TRIPOS>ATOM
      1 C1         -0.0173    1.4248    0.0099 C.3       1 <0>         0.0298
      2 O1          0.0021   -0.0041    0.0020 O.3       1 <0>        -0.3897
      3 C2          0.6518   -0.5703   -1.1379 C.3       1 <0>         0.0441
      4 C3          0.6131   -2.0967   -1.0411 C.3       1 <0>         0.1387
      5 N1         -0.7759   -2.5559   -1.1188 N.pl3     1 <0>        -0.7103
      6 C4         -1.0636   -3.9139   -1.0524 C.ar      1 <0>         0.4134
      7 C5         -2.3829   -4.3637   -1.1312 C.ar      1 <0>         0.0036
      8 C6         -2.6161   -5.7380   -1.0597 C.ar      1 <0>         0.3984
      9 N2         -1.5796   -6.5614   -0.9200 N.ar      1 <0>        -0.5835
     10 C7         -0.3493   -6.0954   -0.8495 C.ar      1 <0>         0.3332
     11 N3         -0.0853   -4.8061   -0.9181 N.ar      1 <0>        -0.5705
     12 N4         -3.9105   -6.2389   -1.1327 N.pl3     1 <0>        -0.5140
     13 N5         -4.1322   -7.6203   -1.0597 N.am      1 <0>        -0.5020
     14 C8         -5.3874   -8.1060   -1.1305 C.2       1 <0>         0.5566
     15 O2         -6.3271   -7.3455   -1.2576 O.2       1 <0>        -0.5374
     16 C9         -5.6212   -9.5634   -1.0535 C.ar      1 <0>        -0.1125
     17 C10        -4.5445  -10.4389   -0.9017 C.ar      1 <0>        -0.0791
     18 C11        -4.7692  -11.7977   -0.8300 C.ar      1 <0>        -0.0952
     19 C12        -6.0596  -12.2941   -0.9084 C.ar      1 <0>        -0.0653
     20 C13        -7.1317  -11.4307   -1.0590 C.ar      1 <0>        -0.0967
     21 C14        -6.9203  -10.0695   -1.1266 C.ar      1 <0>        -0.0487
     22 Br1        -6.3588  -14.1586   -0.8099 Br        1 <0>        -0.0365
     23 N6         -3.4465   -3.4581   -1.2781 N.pl3     1 <0>        -0.8761
     24 H1          1.0053    1.8021    0.0021 H         1 <0>         0.0438
     25 H2         -0.5445    1.7859   -0.8732 H         1 <0>         0.0421
     26 H3         -0.5275    1.7763    0.9067 H         1 <0>         0.0879
     27 H4          0.1385   -0.2506   -2.0447 H         1 <0>         0.0558
     28 H5          1.6883   -0.2344   -1.1694 H         1 <0>         0.0694
     29 H6          1.1847   -2.5275   -1.8631 H         1 <0>         0.0828
     30 H7          1.0473   -2.4117   -0.0922 H         1 <0>         0.0764
     31 H8         -1.4948   -1.9121   -1.2167 H         1 <0>         0.4067
     32 H9          0.4684   -6.7917   -0.7359 H         1 <0>         0.1977
     33 H10        -4.6603   -5.6320   -1.2341 H         1 <0>         0.4377
     34 H11        -3.3823   -8.2272   -0.9583 H         1 <0>         0.4333
     35 H12        -3.5377  -10.0530   -0.8409 H         1 <0>         0.1384
     36 H13        -3.9370  -12.4761   -0.7130 H         1 <0>         0.1437
     37 H14        -8.1358  -11.8237   -1.1194 H         1 <0>         0.1439
     38 H15        -7.7576   -9.3968   -1.2395 H         1 <0>         0.1485
     39 H16        -3.2693   -2.5056   -1.3261 H         1 <0>         0.3966
     40 H17        -4.3581   -3.7852   -1.3315 H         1 <0>         0.3952
@<TRIPOS>BOND
     1    1    2 1
     2    1   24 1
     3    1   25 1
     4    1   26 1
     5    2    3 1
     6    3    4 1
     7    3   27 1
     8    3   28 1
     9    4    5 1
    10    4   29 1
    11    4   30 1
    12    5    6 1
    13    5   31 1
    14    6   11 ar
    15    6    7 ar
    16    7    8 ar
    17    7   23 1
    18    8    9 ar
    19    8   12 1
    20    9   10 ar
    21   10   11 ar
    22   10   32 1
    23   12   13 1
    24   12   33 1
    25   13   14 am
    26   13   34 1
    27   14   15 2
    28   14   16 1
    29   16   21 ar
    30   16   17 ar
    31   17   18 ar
    32   17   35 1
    33   18   19 ar
    34   18   36 1
    35   19   20 ar
    36   19   22 1
    37   20   21 ar
    38   20   37 1
    39   21   38 1
    40   23   39 1
    41   23   40 1
@<TRIPOS>MOLECULE
ZINC56917085
   49    49     0     0     0
SMALL
USER_CHARGES

@<TRIPOS>ATOM
      1 C1         -0.0187    1.5258    0.0104 C.3       1 <0>        -0.1540
      2 C2          0.0021   -0.0041    0.0020 C.3       1 <0>        -0.1325
      3 C3          0.7182   -0.4975   -1.2568 C.3       1 <0>         0.1390
      4 H1          1.7103   -0.0491   -1.3098 H         1 <0>         0.0899
      5 C4          0.8493   -2.0210   -1.2049 C.3       1 <0>        -0.1655
      6 N1         -0.0549   -0.1139   -2.4405 N.am      1 <0>        -0.7236
      7 C5          0.5610    0.0279   -3.6309 C.2       1 <0>         0.5193
      8 O1          1.7554   -0.1622   -3.7221 O.2       1 <0>        -0.5321
      9 C6         -0.2343    0.4225   -4.8486 C.3       1 <0>        -0.1574
     10 C7          0.6974    0.5131   -6.0589 C.3       1 <0>         0.1500
     11 N2         -0.0758    0.8968   -7.2426 N.am      1 <0>        -0.7401
     12 C8          0.5402    1.0385   -8.4330 C.2       1 <0>         0.7190
     13 O2          1.7375    0.8480   -8.5244 O.2       1 <0>        -0.5528
     14 N3         -0.1711    1.3914   -9.5220 N.am      1 <0>        -0.5562
     15 N4         -1.5508    1.6110   -9.4167 N.pl3     1 <0>        -0.4814
     16 C9         -2.2621    1.9639  -10.5057 C.2       1 <0>         0.5635
     17 S1         -3.9480    2.2322  -10.3770 S.2       1 <0>        -0.5904
     18 N5         -1.6461    2.1057  -11.6961 N.pl3     1 <0>        -0.6732
     19 C10        -2.4192    2.4893  -12.8798 C.3       1 <0>         0.1367
     20 C11        -2.9884    1.2322  -13.5695 C.3       1 <0>        -0.1311
     21 C12        -2.8924    1.5523  -15.0819 C.3       1 <0>        -0.1247
     22 C13        -1.5482    2.3149  -15.1852 C.3       1 <0>        -0.1259
     23 C14        -1.5035    3.1777  -13.9071 C.3       1 <0>        -0.1338
     24 H2          1.0039    1.9031    0.0027 H         1 <0>         0.0561
     25 H3         -0.5459    1.8868   -0.8726 H         1 <0>         0.0541
     26 H4         -0.5289    1.8773    0.9072 H         1 <0>         0.0579
     27 H5          0.5293   -0.3651    0.8851 H         1 <0>         0.0802
     28 H6         -1.0205   -0.3814    0.0098 H         1 <0>         0.0686
     29 H7          1.4245   -2.3064   -0.3242 H         1 <0>         0.0673
     30 H8         -0.1428   -2.4694   -1.1520 H         1 <0>         0.0572
     31 H9          1.3594   -2.3725   -2.1017 H         1 <0>         0.0612
     32 H10        -1.0102    0.0381   -2.3676 H         1 <0>         0.4008
     33 H11        -1.0041   -0.3256   -5.0379 H         1 <0>         0.1037
     34 H12        -0.7034    1.3915   -4.6778 H         1 <0>         0.1036
     35 H13         1.4672    1.2612   -5.8696 H         1 <0>         0.0831
     36 H14         1.1665   -0.4558   -6.2296 H         1 <0>         0.0830
     37 H15        -1.0310    1.0488   -7.1697 H         1 <0>         0.3935
     38 H16         0.2722    1.4935  -10.3787 H         1 <0>         0.4319
     39 H17        -1.9941    1.5090   -8.5600 H         1 <0>         0.4459
     40 H18        -0.6908    1.9537  -11.7690 H         1 <0>         0.3932
     41 H19        -3.2304    3.1592  -12.5947 H         1 <0>         0.1238
     42 H20        -2.3856    0.3574  -13.3257 H         1 <0>         0.0673
     43 H21        -4.0268    1.0744  -13.2781 H         1 <0>         0.0862
     44 H22        -2.8622    0.6349  -15.6698 H         1 <0>         0.0719
     45 H23        -3.7214    2.1865  -15.3959 H         1 <0>         0.0743
     46 H24        -0.7128    1.6150  -15.2023 H         1 <0>         0.0670
     47 H25        -1.5356    2.9472  -16.0730 H         1 <0>         0.0726
     48 H26        -1.8708    4.1814  -14.1212 H         1 <0>         0.0839
     49 H27        -0.4839    3.2263  -13.5249 H         1 <0>         0.0690
@<TRIPOS>BOND
     1    1    2 1
     2    1   24 1
     3    1   25 1
     4    1   26 1
     5    2    3 1
     6    2   27 1
     7    2   28 1
     8    3    4 1
     9    3    5 1
    10    3    6 1
    11    5   29 1
    12    5   30 1
    13    5   31 1
    14    6    7 am
    15    6   32 1
    16    7    8 2
    17    7    9 1
    18    9   10 1
    19    9   33 1
    20    9   34 1
    21   10   11 1
    22   10   35 1
    23   10   36 1
    24   11   12 am
    25   11   37 1
    26   12   13 2
    27   12   14 am
    28   14   15 1
    29   14   38 1
    30   15   16 1
    31   15   39 1
    32   16   17 2
    33   16   18 1
    34   18   19 1
    35   18   40 1
    36   19   23 1
    37   19   20 1
    38   19   41 1
    39   20   21 1
    40   20   42 1
    41   20   43 1
    42   21   22 1
    43   21   44 1
    44   21   45 1
    45   22   23 1
    46   22   46 1
    47   22   47 1
    48   23   48 1
    49   23   49 1
@<TRIPOS>MOLECULE
ZINC64883265
   57    58     0     0     0
SMALL
USER_CHARGES

@<TRIPOS>ATOM
      1 C1         -0.0187    1.5258    0.0104 C.3       1 <0>        -0.1532
      2 C2          0.0021   -0.0041    0.0020 C.3       1 <0>        -0.1221
      3 C3          0.7182   -0.4975   -1.2568 C.3       1 <0>        -0.1326
      4 C4          0.7390   -2.0273   -1.2652 C.3       1 <0>         0.1336
      5 N1          1.4247   -2.4998   -2.4705 N.am      1 <0>        -0.7441
      6 C5          1.5637   -3.8219   -2.6922 C.2       1 <0>         0.7124
      7 O1          1.1201   -4.6225   -1.8919 O.2       1 <0>        -0.5694
      8 N2          2.1946   -4.2565   -3.8011 N.am      1 <0>        -0.5306
      9 N3          2.7058   -3.3340   -4.7233 N.am      1 <0>        -0.5335
     10 C6          3.3366   -3.7687   -5.8322 C.2       1 <0>         0.5013
     11 O2          3.4618   -4.9584   -6.0317 O.2       1 <0>        -0.4942
     12 C7          3.8865   -2.7764   -6.8241 C.3       1 <0>         0.1555
     13 C8          5.2269   -2.2391   -6.3185 C.3       1 <0>        -0.0564
     14 C9          5.7174   -1.1583   -7.2471 C.2       1 <0>        -0.1686
     15 C10         6.5663   -1.3137   -8.2752 C.2       1 <0>         0.0685
     16 N4          6.7803   -0.1099   -8.8896 N.pl3     1 <0>        -0.5941
     17 H1          7.3566    0.0292   -9.6574 H         1 <0>         0.4168
     18 C11         6.0559    0.8746   -8.2557 C.ar      1 <0>         0.0960
     19 C12         5.3533    0.2599   -7.2028 C.ar      1 <0>        -0.1011
     20 C13         4.5215    1.0230   -6.3816 C.ar      1 <0>        -0.0755
     21 C14         4.3910    2.3645   -6.6071 C.ar      1 <0>        -0.1429
     22 C15         5.0786    2.9748   -7.6468 C.ar      1 <0>        -0.0989
     23 C16         5.9121    2.2422   -8.4637 C.ar      1 <0>        -0.1281
     24 N5          4.0814   -3.4359   -8.1177 N.am      1 <0>        -0.7163
     25 C17         4.9137   -4.4912   -8.2174 C.2       1 <0>         0.5228
     26 O3          5.5013   -4.8949   -7.2362 O.2       1 <0>        -0.5057
     27 C18         5.1143   -5.1696   -9.5480 C.3       1 <0>        -0.1121
     28 C19         6.0999   -6.3286   -9.3862 C.3       1 <0>        -0.1334
     29 C20         3.7739   -5.7069  -10.0537 C.3       1 <0>        -0.1441
     30 H2          1.0039    1.9031    0.0027 H         1 <0>         0.0549
     31 H3         -0.5459    1.8868   -0.8726 H         1 <0>         0.0547
     32 H4         -0.5289    1.8773    0.9072 H         1 <0>         0.0569
     33 H5          0.5293   -0.3651    0.8851 H         1 <0>         0.0665
     34 H6         -1.0205   -0.3814    0.0098 H         1 <0>         0.0663
     35 H7          0.1910   -0.1364   -2.1398 H         1 <0>         0.0699
     36 H8          1.7408   -0.1202   -1.2645 H         1 <0>         0.0703
     37 H9          1.2661   -2.3884   -0.3821 H         1 <0>         0.0708
     38 H10        -0.2836   -2.4046   -1.2575 H         1 <0>         0.0706
     39 H11         1.7786   -1.8611   -3.1090 H         1 <0>         0.3905
     40 H12         2.2946   -5.2081   -3.9607 H         1 <0>         0.4436
     41 H13         2.6057   -2.3825   -4.5637 H         1 <0>         0.4161
     42 H14         3.1843   -1.9507   -6.9394 H         1 <0>         0.1129
     43 H15         5.0989   -1.8275   -5.3173 H         1 <0>         0.0816
     44 H16         5.9549   -3.0497   -6.2877 H         1 <0>         0.1025
     45 H17         7.0143   -2.2501   -8.5732 H         1 <0>         0.1648
     46 H18         3.9828    0.5547   -5.5711 H         1 <0>         0.1189
     47 H19         3.7473    2.9544   -5.9714 H         1 <0>         0.1225
     48 H20         4.9647    4.0358   -7.8129 H         1 <0>         0.1250
     49 H21         6.4420    2.7261   -9.2709 H         1 <0>         0.1194
     50 H22         3.6115   -3.1130   -8.9024 H         1 <0>         0.4057
     51 H23         5.5120   -4.4519  -10.2655 H         1 <0>         0.0929
     52 H24         5.7022   -7.0463   -8.6687 H         1 <0>         0.0643
     53 H25         6.2450   -6.8193  -10.3486 H         1 <0>         0.0603
     54 H26         7.0548   -5.9458   -9.0260 H         1 <0>         0.0606
     55 H27         3.0717   -4.8812  -10.1690 H         1 <0>         0.0568
     56 H28         3.9190   -6.1976  -11.0161 H         1 <0>         0.0669
     57 H29         3.3762   -6.4246   -9.3362 H         1 <0>         0.0635
@<TRIPOS>BOND
     1    1    2 1
     2    1   30 1
     3    1   31 1
     4    1   32 1
     5    2    3 1
     6    2   33 1
     7    2   34 1
     8    3    4 1
     9    3   35 1
    10    3   36 1
    11    4    5 1
    12    4   37 1
    13    4   38 1
    14    5    6 am
    15    5   39 1
    16    6    7 2
    17    6    8 am
    18    8    9 1
    19    8   40 1
    20    9   10 am
    21    9   41 1
    22   10   11 2
    23   10   12 1
    24   12   13 1
    25   12   24 1
    26   12   42 1
    27   13   14 1
    28   13   43 1
    29   13   44 1
    30   14   19 1
    31   14   15 2
    32   15   16 1
    33   15   45 1
    34   16   17 1
    35   16   18 1
    36   18   23 ar
    37   18   19 ar
    38   19   20 ar
    39   20   21 ar
    40   20   46 1
    41   21   22 ar
    42   21   47 1
    43   22   23 ar
    44   22   48 1
    45   23   49 1
    46   24   25 am
    47   24   50 1
    48   25   26 2
    49   25   27 1
    50   27   28 1
    51   27   29 1
    52   27   51 1
    53   28   52 1
    54   28   53 1
    55   28   54 1
    56   29   55 1
    57   29   56 1
    58   29   57 1
@<TRIPOS>MOLECULE
ZINC66142522
   52    53     0     0     0
SMALL
USER_CHARGES

@<TRIPOS>ATOM
      1 C1         -0.0138    1.4143    0.1539 C.3       1 <0>        -0.1564
      2 C2          0.0180   -0.1106    0.0328 C.3       1 <0>        -0.1348
      3 C3          0.7206   -0.5044   -1.2680 C.3       1 <0>         0.0658
      4 H1          0.2318   -0.0117   -2.1085 H         1 <0>         0.1030
      5 C4          0.6441   -1.9986   -1.4478 C.2       1 <0>         0.5175
      6 O1          1.6576   -2.6644   -1.4288 O.2       1 <0>        -0.5143
      7 N1         -0.5507   -2.5951   -1.6298 N.am      1 <0>        -0.7102
      8 C5         -0.6251   -4.0478   -1.8046 C.3       1 <0>         0.1213
      9 H2          0.1383   -4.5271   -1.1918 H         1 <0>         0.1097
     10 C6         -0.3915   -4.3970   -3.2758 C.3       1 <0>         0.0677
     11 O2         -1.4569   -3.8660   -4.0664 O.3       1 <0>        -0.5533
     12 C7         -2.0080   -4.5428   -1.3763 C.3       1 <0>         0.1544
     13 H3         -2.0343   -5.6316   -1.4219 H         1 <0>         0.1162
     14 C8         -2.2882   -4.0922    0.0342 C.ar      1 <0>        -0.1768
     15 C9         -2.8180   -2.8358    0.2646 C.ar      1 <0>        -0.0620
     16 C10        -3.0760   -2.4197    1.5559 C.ar      1 <0>        -0.1939
     17 C11        -2.8027   -3.2648    2.6240 C.ar      1 <0>         0.2201
     18 C12        -2.2705   -4.5263    2.3889 C.ar      1 <0>        -0.1935
     19 C13        -2.0202   -4.9382    1.0947 C.ar      1 <0>        -0.0572
     20 N2         -3.0620   -2.8470    3.9313 N.pl3     1 <0>        -0.8774
     21 O3         -2.9993   -4.0052   -2.2539 O.3       1 <0>        -0.5254
     22 O4          2.0903   -0.1010   -1.2105 O.3       1 <0>        -0.2811
     23 C14         2.4207    1.0538   -1.8462 C.ar      1 <0>         0.1334
     24 C15         3.7497    1.4423   -1.9356 C.ar      1 <0>        -0.1549
     25 C16         4.0829    2.6162   -2.5826 C.ar      1 <0>        -0.0749
     26 C17         3.0931    3.4042   -3.1410 C.ar      1 <0>        -0.1585
     27 C18         1.7682    3.0196   -3.0529 C.ar      1 <0>        -0.0460
     28 C19         1.4302    1.8433   -2.4117 C.ar      1 <0>        -0.2141
     29 C20         0.6921    3.8810   -3.6622 C.3       1 <0>        -0.1180
     30 H4          1.0058    1.7996    0.1607 H         1 <0>         0.0629
     31 H5         -0.5555    1.8348   -0.6933 H         1 <0>         0.0585
     32 H6         -0.5143    1.6948    1.0806 H         1 <0>         0.0638
     33 H7          0.5597   -0.5311    0.8801 H         1 <0>         0.0815
     34 H8         -1.0016   -0.4959    0.0261 H         1 <0>         0.0829
     35 H9         -1.3613   -2.0627   -1.6450 H         1 <0>         0.3965
     36 H10         0.5545   -3.9675   -3.6054 H         1 <0>         0.0498
     37 H11        -0.3584   -5.4804   -3.3912 H         1 <0>         0.0558
     38 H12        -1.3742   -4.0498   -5.0122 H         1 <0>         0.3755
     39 H13        -3.0299   -2.1791   -0.5662 H         1 <0>         0.1130
     40 H14        -3.4894   -1.4382    1.7352 H         1 <0>         0.1208
     41 H15        -2.0565   -5.1856    3.2171 H         1 <0>         0.1212
     42 H16        -1.6106   -5.9205    0.9110 H         1 <0>         0.1229
     43 H17        -3.4333   -1.9658    4.0942 H         1 <0>         0.3988
     44 H18        -2.8707   -3.4380    4.6763 H         1 <0>         0.3992
     45 H19        -3.0328   -3.0388   -2.2645 H         1 <0>         0.3654
     46 H20         4.5230    0.8274   -1.4993 H         1 <0>         0.1310
     47 H21         5.1172    2.9192   -2.6521 H         1 <0>         0.1303
     48 H22         3.3557    4.3218   -3.6465 H         1 <0>         0.1238
     49 H23         0.3954    1.5411   -2.3471 H         1 <0>         0.1305
     50 H24         0.5229    3.5751   -4.6946 H         1 <0>         0.0733
     51 H25        -0.2306    3.7663   -3.0933 H         1 <0>         0.0663
     52 H26         1.0058    4.9247   -3.6392 H         1 <0>         0.0698
@<TRIPOS>BOND
     1    1    2 1
     2    1   30 1
     3    1   31 1
     4    1   32 1
     5    2    3 1
     6    2   33 1
     7    2   34 1
     8    3    4 1
     9    3    5 1
    10    3   22 1
    11    5    6 2
    12    5    7 am
    13    7    8 1
    14    7   35 1
    15    8    9 1
    16    8   10 1
    17    8   12 1
    18   10   11 1
    19   10   36 1
    20   10   37 1
    21   11   38 1
    22   12   13 1
    23   12   14 1
    24   12   21 1
    25   14   19 ar
    26   14   15 ar
    27   15   16 ar
    28   15   39 1
    29   16   17 ar
    30   16   40 1
    31   17   18 ar
    32   17   20 1
    33   18   19 ar
    34   18   41 1
    35   19   42 1
    36   20   43 1
    37   20   44 1
    38   21   45 1
    39   22   23 1
    40   23   28 ar
    41   23   24 ar
    42   24   25 ar
    43   24   46 1
    44   25   26 ar
    45   25   47 1
    46   26   27 ar
    47   26   48 1
    48   27   28 ar
    49   27   29 1
    50   28   49 1
    51   29   50 1
    52   29   51 1
    53   29   52 1
@<TRIPOS>MOLECULE
ZINC67565881
   52    53     0     0     0
SMALL
USER_CHARGES

@<TRIPOS>ATOM
      1 C1         -0.0434    1.5596   -0.0088 C.3       1 <0>        -0.1104
      2 C2         -0.0116    0.0530   -0.0234 C.ar      1 <0>        -0.0960
      3 C3         -0.0080   -0.6267   -1.2260 C.ar      1 <0>        -0.1160
      4 C4          0.0211   -2.0090   -1.2401 C.ar      1 <0>        -0.1138
      5 C5          0.0468   -2.7144   -0.0513 C.ar      1 <0>        -0.1158
      6 C6          0.0433   -2.0394    1.1540 C.ar      1 <0>        -0.0975
      7 C7          0.0199   -0.6524    1.1708 C.ar      1 <0>         0.0869
      8 O1          0.0225    0.0142    2.3551 O.3       1 <0>        -0.3170
      9 C8         -1.2491    0.3058    2.9383 C.3       1 <0>         0.0350
     10 C9         -1.0457    1.0539    4.2573 C.3       1 <0>         0.1006
     11 H1         -0.3923    0.4724    4.9078 H         1 <0>         0.1168
     12 C10        -2.3986    1.2563    4.9427 C.3       1 <0>         0.1087
     13 N1         -2.2039    1.9726    6.2057 N.am      1 <0>        -0.7344
     14 C11        -3.2638    2.2641    6.9854 C.2       1 <0>         0.7049
     15 O2         -4.3817    1.9326    6.6406 O.2       1 <0>        -0.5676
     16 N2         -3.0847    2.9231    8.1473 N.am      1 <0>        -0.6794
     17 C12        -4.1928    3.3296    8.8993 C.ar      1 <0>         0.1839
     18 C13        -5.4172    3.5377    8.2776 C.ar      1 <0>        -0.1300
     19 C14        -6.5088    3.9383    9.0224 C.ar      1 <0>        -0.0954
     20 C15        -6.3837    4.1327   10.3860 C.ar      1 <0>        -0.1384
     21 C16        -5.1661    3.9268   11.0078 C.ar      1 <0>        -0.0852
     22 C17        -4.0718    3.5201   10.2693 C.ar      1 <0>        -0.1057
     23 C18        -2.7466    3.2898   10.9488 C.3       1 <0>        -0.1036
     24 C19        -1.9067    4.5370   10.8474 C.2       1 <0>         0.5093
     25 O3         -2.3415    5.5163   10.2793 O.2       1 <0>        -0.5264
     26 N3         -0.6724    4.5640   11.3880 N.am      1 <0>        -0.8577
     27 O4         -0.4488    2.3258    3.9965 O.3       1 <0>        -0.5462
     28 C20         0.0712   -2.8089    2.4494 C.3       1 <0>        -0.1117
     29 H2          0.9763    1.9447   -0.0194 H         1 <0>         0.0748
     30 H3         -0.5772    1.9203   -0.8880 H         1 <0>         0.0664
     31 H4         -0.5523    1.9035    0.8917 H         1 <0>         0.0657
     32 H5         -0.0283   -0.0780   -2.1560 H         1 <0>         0.1269
     33 H6          0.0235   -2.5386   -2.1814 H         1 <0>         0.1264
     34 H7          0.0691   -3.7941   -0.0649 H         1 <0>         0.1269
     35 H8         -1.8288    0.9259    2.2545 H         1 <0>         0.0620
     36 H9         -1.7842   -0.6249    3.1272 H         1 <0>         0.0673
     37 H10        -3.0520    1.8377    4.2922 H         1 <0>         0.0762
     38 H11        -2.8539    0.2861    5.1416 H         1 <0>         0.0827
     39 H12        -1.3121    2.2371    6.4807 H         1 <0>         0.4036
     40 H13        -2.1877    3.1157    8.4624 H         1 <0>         0.4036
     41 H14        -5.5153    3.3868    7.2127 H         1 <0>         0.1470
     42 H15        -7.4612    4.1003    8.5396 H         1 <0>         0.1255
     43 H16        -7.2388    4.4464   10.9663 H         1 <0>         0.1237
     44 H17        -5.0714    4.0801   12.0726 H         1 <0>         0.1241
     45 H18        -2.9136    3.0486   11.9985 H         1 <0>         0.1101
     46 H19        -2.2285    2.4625   10.4638 H         1 <0>         0.0983
     47 H20        -0.3247    3.7807   11.8424 H         1 <0>         0.4022
     48 H21        -0.1318    5.3667   11.3228 H         1 <0>         0.4034
     49 H22        -0.9767    2.8976    3.4225 H         1 <0>         0.3779
     50 H23         1.1053   -2.9727    2.7525 H         1 <0>         0.0744
     51 H24        -0.4479   -2.2403    3.2210 H         1 <0>         0.0653
     52 H25        -0.4237   -3.7703    2.3117 H         1 <0>         0.0675
@<TRIPOS>BOND
     1    1    2 1
     2    1   29 1
     3    1   30 1
     4    1   31 1
     5    2    7 ar
     6    2    3 ar
     7    3    4 ar
     8    3   32 1
     9    4    5 ar
    10    4   33 1
    11    5    6 ar
    12    5   34 1
    13    6    7 ar
    14    6   28 1
    15    7    8 1
    16    8    9 1
    17    9   10 1
    18    9   35 1
    19    9   36 1
    20   10   11 1
    21   10   12 1
    22   10   27 1
    23   12   13 1
    24   12   37 1
    25   12   38 1
    26   13   14 am
    27   13   39 1
    28   14   15 2
    29   14   16 am
    30   16   17 1
    31   16   40 1
    32   17   22 ar
    33   17   18 ar
    34   18   19 ar
    35   18   41 1
    36   19   20 ar
    37   19   42 1
    38   20   21 ar
    39   20   43 1
    40   21   22 ar
    41   21   44 1
    42   22   23 1
    43   23   24 1
    44   23   45 1
    45   23   46 1
    46   24   25 2
    47   24   26 am
    48   26   47 1
    49   26   48 1
    50   27   49 1
    51   28   50 1
    52   28   51 1
    53   28   52 1
@<TRIPOS>MOLECULE
ZINC15776298
   46    49     0     0     0
SMALL
USER_CHARGES

@<TRIPOS>ATOM
      1 C1         -0.0167    1.3781    0.0096 C.ar      1 <0>        -0.0528
      2 C2          1.1709    2.0855    0.0021 C.ar      1 <0>        -0.1343
      3 C3          2.3773    1.4107   -0.0130 C.ar      1 <0>        -0.0181
      4 C4          2.3960    0.0285   -0.0201 C.ar      1 <0>        -0.6763
      5 C5          1.2084   -0.6789   -0.0117 C.ar      1 <0>        -0.0223
      6 C6          0.0021   -0.0041    0.0020 C.ar      1 <0>        -0.1398
      7 S1          3.9337   -0.8316   -0.0405 S.o2      1 <0>         2.6996
      8 O1          3.6744   -2.1140   -0.5951 O.2       1 <0>        -0.9278
      9 O2          4.8903    0.0598   -0.5970 O.2       1 <0>        -0.9238
     10 N1          4.3776   -1.0785    1.5357 N.pl3     1 <0>        -0.9439
     11 N2          3.5485   -1.8180    2.3893 N.2       1 <0>        -0.1983
     12 C7          3.8916   -2.0088    3.6077 C.2       1 <0>         0.0443
     13 C8          2.9998   -2.8043    4.5259 C.3       1 <0>         0.4387
     14 N3          3.7323   -3.9812    5.0239 N.pl3     1 <0>        -0.7060
     15 C9          2.9585   -5.0395    5.5017 C.ar      1 <0>         0.2681
     16 C10         3.4277   -5.9235    6.4537 C.ar      1 <0>        -0.1792
     17 C11         2.6105   -6.9480    6.8960 C.ar      1 <0>         0.0448
     18 C12         1.3283   -7.0901    6.3901 C.ar      1 <0>        -0.1538
     19 C13         0.8479   -6.2169    5.4365 C.ar      1 <0>         0.0450
     20 C14         1.6610   -5.1813    4.9771 C.ar      1 <0>        -0.0779
     21 N4          1.2331   -4.3071    4.0237 N.2       1 <0>         0.0254
     22 N5          1.8137   -3.2444    3.7929 N.pl3     1 <0>        -0.3153
     23 C15         2.5808   -1.9433    5.6895 C.ar      1 <0>        -0.1542
     24 C16         3.3514   -1.9094    6.8367 C.ar      1 <0>        -0.0592
     25 C17         2.9676   -1.1200    7.9043 C.ar      1 <0>        -0.1010
     26 C18         1.8119   -0.3636    7.8248 C.ar      1 <0>        -0.0050
     27 C19         1.0410   -0.3979    6.6764 C.ar      1 <0>        -0.0987
     28 C20         1.4289   -1.1834    5.6073 C.ar      1 <0>        -0.0832
     29 Cl1         1.3289    0.6278    9.1655 Cl        1 <0>        -0.0338
     30 H1         -0.9591    1.9053    0.0259 H         1 <0>         0.1375
     31 H2          1.1563    3.1654    0.0076 H         1 <0>         0.1394
     32 H3          3.3051    1.9634   -0.0196 H         1 <0>         0.1430
     33 H4          1.2231   -1.7588   -0.0176 H         1 <0>         0.1403
     34 H5         -0.9258   -0.5567    0.0082 H         1 <0>         0.1382
     35 H6          5.2116   -0.7112    1.8679 H         1 <0>         0.4178
     36 H7          4.8202   -1.5998    3.9776 H         1 <0>         0.1697
     37 H8          4.7016   -4.0188    5.0197 H         1 <0>         0.4450
     38 H9          4.4266   -5.8156    6.8499 H         1 <0>         0.1618
     39 H10         2.9740   -7.6415    7.6399 H         1 <0>         0.1637
     40 H11         0.6991   -7.8926    6.7456 H         1 <0>         0.1642
     41 H12        -0.1526   -6.3349    5.0473 H         1 <0>         0.1684
     42 H13         4.2534   -2.5002    6.8989 H         1 <0>         0.1429
     43 H14         3.5695   -1.0939    8.8007 H         1 <0>         0.1515
     44 H15         0.1386    0.1921    6.6138 H         1 <0>         0.1503
     45 H16         0.8298   -1.2066    4.7090 H         1 <0>         0.1317
     46 H17         1.4665   -2.6721    3.0909 H         1 <0>         0.4735
@<TRIPOS>BOND
     1    1    6 ar
     2    1    2 ar
     3    1   30 1
     4    2    3 ar
     5    2   31 1
     6    3    4 ar
     7    3   32 1
     8    4    5 ar
     9    4    7 1
    10    5    6 ar
    11    5   33 1
    12    6   34 1
    13    7    8 2
    14    7    9 2
    15    7   10 1
    16   10   11 1
    17   10   35 1
    18   11   12 2
    19   12   13 1
    20   12   36 1
    21   13   22 1
    22   13   14 1
    23   13   23 1
    24   14   15 1
    25   14   37 1
    26   15   20 ar
    27   15   16 ar
    28   16   17 ar
    29   16   38 1
    30   17   18 ar
    31   17   39 1
    32   18   19 ar
    33   18   40 1
    34   19   20 ar
    35   19   41 1
    36   20   21 1
    37   21   22 2
    38   22   46 1
    39   23   28 ar
    40   23   24 ar
    41   24   25 ar
    42   24   42 1
    43   25   26 ar
    44   25   43 1
    45   26   27 ar
    46   26   29 1
    47   27   28 ar
    48   27   44 1
    49   28   45 1
@<TRIPOS>MOLECULE
ZINC08917848
   72    76     0     0     0
SMALL
USER_CHARGES

@<TRIPOS>ATOM
      1 C1         -0.0186    1.5189    0.0104 C.3       1 <0>        -0.1494
      2 C2          0.0021   -0.0041    0.0020 C.3       1 <0>        -0.0732
      3 H1          0.5220   -0.3309   -0.9126 H         1 <0>         0.0687
      4 C3         -1.4208   -0.5519   -0.0547 C.3       1 <0>        -0.1139
      5 C4         -1.3304   -2.0697   -0.2668 C.3       1 <0>        -0.1022
      6 C5         -0.5219   -2.6524    0.8591 C.2       1 <0>        -0.1017
      7 C6          0.3955   -1.9828    1.4890 C.2       1 <0>        -0.1442
      8 C7          0.7774   -0.5579    1.1841 C.3       1 <0>         0.0049
      9 C8          0.5934    0.2628    2.4504 C.3       1 <0>         0.1447
     10 H2          1.0924    1.2334    2.3273 H         1 <0>         0.0607
     11 C9          1.1415   -0.3542    3.7070 C.3       1 <0>        -0.1369
     12 H3          0.6165    0.1561    4.5469 H         1 <0>         0.1023
     13 C10         0.9156   -1.8566    3.9078 C.3       1 <0>         0.1063
     14 H4         -0.0650   -2.0732    4.3472 H         1 <0>         0.1520
     15 C11         1.1437   -2.6551    2.6209 C.3       1 <0>        -0.1119
     16 O1          2.0060   -2.2263    4.7980 O.3       1 <0>        -0.3341
     17 C12         3.1004   -1.5446    4.3949 C.2       1 <0>         0.4775
     18 O2          4.2339   -1.9543    4.3840 O.2       1 <0>        -0.4237
     19 C13         2.6408   -0.1607    3.9561 C.3       1 <0>        -0.1842
     20 H5          3.1730    0.1613    3.0664 H         1 <0>         0.1427
     21 C14         2.8698    0.8504    5.0885 C.3       1 <0>         0.0013
     22 N1          4.3087    1.1102    5.2294 N.4       1 <0>        -0.5107
     23 C15         4.5279    2.0776    6.3129 C.3       1 <0>         0.0133
     24 C16         3.9180    3.4277    5.9251 C.3       1 <0>        -0.1718
     25 C17         4.2187    4.4511    7.0222 C.3       1 <0>        -0.0022
     26 N2          5.6712    4.5951    7.1772 N.4       1 <0>        -0.3880
     27 C18         6.2536    3.3222    7.6187 C.3       1 <0>        -0.0088
     28 C19         6.0312    2.2554    6.5445 C.3       1 <0>        -0.1700
     29 C20         5.9550    5.6343    8.1760 C.3       1 <0>         0.0459
     30 C21         7.4418    5.8697    8.2474 C.ar      1 <0>        -0.1734
     31 C22         8.2167    5.1336    9.1241 C.ar      1 <0>        -0.1007
     32 C23         9.5805    5.3496    9.1896 C.ar      1 <0>        -0.1111
     33 C24        10.1694    6.3013    8.3783 C.ar      1 <0>        -0.0762
     34 C25         9.3946    7.0368    7.5010 C.ar      1 <0>        -0.1099
     35 C26         8.0314    6.8178    7.4324 C.ar      1 <0>        -0.0921
     36 O3         -0.8029    0.5095    2.6673 O.3       1 <0>        -0.5386
     37 C27         2.2559   -0.5415    0.7740 C.3       1 <0>        -0.1489
     38 H6          1.0040    1.8962    0.0027 H         1 <0>         0.0460
     39 H7         -0.5458    1.8800   -0.8727 H         1 <0>         0.0615
     40 H8         -0.5288    1.8704    0.9072 H         1 <0>         0.0661
     41 H9         -1.9479   -0.3418    0.8724 H         1 <0>         0.0829
     42 H10        -1.9557   -0.1002   -0.8914 H         1 <0>         0.0676
     43 H11        -2.3311   -2.4995   -0.2624 H         1 <0>         0.0802
     44 H12        -0.8420   -2.2778   -1.2176 H         1 <0>         0.0806
     45 H13        -0.7132   -3.6739    1.1576 H         1 <0>         0.1118
     46 H14         0.7547   -3.6674    2.7549 H         1 <0>         0.0948
     47 H15         2.2044   -2.7090    2.3980 H         1 <0>         0.0775
     48 H16         2.3537    1.7814    4.8542 H         1 <0>         0.1531
     49 H17         2.4807    0.4444    6.0223 H         1 <0>         0.1486
     50 H18         4.7865    0.2483    5.4463 H         1 <0>         0.4418
     51 H19         4.0588    1.7136    7.2270 H         1 <0>         0.1601
     52 H20         4.3509    3.7657    4.9835 H         1 <0>         0.1153
     53 H21         2.8390    3.3210    5.8128 H         1 <0>         0.1367
     54 H22         3.7857    5.4135    6.7493 H         1 <0>         0.1537
     55 H23         3.7852    4.1124    7.9632 H         1 <0>         0.1436
     56 H24         7.3229    3.4511    7.7862 H         1 <0>         0.1542
     57 H25         5.7767    3.0075    8.5469 H         1 <0>         0.1431
     58 H26         6.4627    1.3106    6.8750 H         1 <0>         0.1391
     59 H27         6.5079    2.5690    5.6158 H         1 <0>         0.1143
     60 H28         5.4540    6.5592    7.8903 H         1 <0>         0.1441
     61 H29         5.5912    5.3101    9.1510 H         1 <0>         0.1407
     62 H30         7.7566    4.3901    9.7580 H         1 <0>         0.1306
     63 H31        10.1859    4.7750    9.8750 H         1 <0>         0.1393
     64 H32        11.2348    6.4705    8.4300 H         1 <0>         0.1401
     65 H33         9.8546    7.7805    6.8673 H         1 <0>         0.1397
     66 H34         7.4266    7.3898    6.7443 H         1 <0>         0.1320
     67 H35        -0.9919    1.0294    3.4605 H         1 <0>         0.3744
     68 H36         2.5597    0.4813    0.5510 H         1 <0>         0.0632
     69 H37         2.8637   -0.9313    1.5905 H         1 <0>         0.0446
     70 H38         2.3944   -1.1628   -0.1108 H         1 <0>         0.0764
     71 H39         6.0780    4.8613    6.2930 H         1 <0>         0.4260
     72 H40         4.6689    1.4860    4.3650 H         1 <0>         0.4338
@<TRIPOS>BOND
     1    1    2 1
     2    1   38 1
     3    1   39 1
     4    1   40 1
     5    2    3 1
     6    2    8 1
     7    2    4 1
     8    4    5 1
     9    4   41 1
    10    4   42 1
    11    5    6 1
    12    5   43 1
    13    5   44 1
    14    6    7 2
    15    6   45 1
    16    7   15 1
    17    7    8 1
    18    8    9 1
    19    8   37 1
    20    9   10 1
    21    9   11 1
    22    9   36 1
    23   11   12 1
    24   11   19 1
    25   11   13 1
    26   13   14 1
    27   13   15 1
    28   13   16 1
    29   15   46 1
    30   15   47 1
    31   16   17 1
    32   17   18 2
    33   17   19 1
    34   19   20 1
    35   19   21 1
    36   21   22 1
    37   21   48 1
    38   21   49 1
    39   22   23 1
    40   22   50 1
    41   22   72 1
    42   23   28 1
    43   23   24 1
    44   23   51 1
    45   24   25 1
    46   24   52 1
    47   24   53 1
    48   25   26 1
    49   25   54 1
    50   25   55 1
    51   26   27 1
    52   26   29 1
    53   26   71 1
    54   27   28 1
    55   27   56 1
    56   27   57 1
    57   28   58 1
    58   28   59 1
    59   29   30 1
    60   29   60 1
    61   29   61 1
    62   30   35 ar
    63   30   31 ar
    64   31   32 ar
    65   31   62 1
    66   32   33 ar
    67   32   63 1
    68   33   34 ar
    69   33   64 1
    70   34   35 ar
    71   34   65 1
    72   35   66 1
    73   36   67 1
    74   37   68 1
    75   37   69 1
    76   37   70 1
@<TRIPOS>MOLECULE
ZINC52627900
   55    59     0     0     0
SMALL
USER_CHARGES

@<TRIPOS>ATOM
      1 C1         -0.0163    1.3482    0.0095 C.ar      1 <0>        -0.0992
      2 C2          1.1658    2.1014    0.0022 C.ar      1 <0>         0.0483
      3 C3          2.3912    1.5352   -0.0125 C.ar      1 <0>        -0.1924
      4 C4          2.5288    0.1198   -0.0218 C.ar      1 <0>         0.3308
      5 N1          3.5868   -0.6543   -0.0369 N.pl3     1 <0>        -0.5612
      6 C5          3.1432   -2.0528   -0.0408 C.3       1 <0>         0.0602
      7 C6          1.6315   -2.0084   -0.0255 C.2       1 <0>        -0.0037
      8 C7          1.2951   -0.6984   -0.0144 C.ar      1 <0>        -0.1431
      9 C8          0.0021   -0.0041    0.0020 C.ar      1 <0>        -0.0796
     10 C9          0.6905   -3.1856   -0.0239 C.3       1 <0>        -0.1046
     11 C10         0.4565   -3.6534   -1.4617 C.3       1 <0>         0.0426
     12 H1          1.4151   -3.8639   -1.9359 H         1 <0>         0.1654
     13 C11        -0.3976   -4.9228   -1.4524 C.3       1 <0>         0.0252
     14 O1         -0.5190   -5.4250   -2.7847 O.3       1 <0>        -0.3220
     15 C12        -1.2521   -6.5571   -2.9530 C.ar      1 <0>         0.0589
     16 C13        -1.4116   -7.1102   -4.2173 C.ar      1 <0>        -0.0868
     17 C14        -2.1736   -8.2744   -4.3386 C.ar      1 <0>        -0.0441
     18 C15        -2.7407   -8.8325   -3.1942 C.ar      1 <0>         0.0982
     19 N2         -2.5634   -8.2741   -2.0147 N.ar      1 <0>        -0.4364
     20 C16        -1.8458   -7.1781   -1.8630 C.ar      1 <0>         0.0271
     21 C17        -2.3766   -8.9069   -5.6651 C.ar      1 <0>        -0.0411
     22 C18        -1.7934   -8.3336   -6.8062 C.ar      1 <0>        -0.1044
     23 C19        -1.9628   -8.8919   -8.0343 C.ar      1 <0>        -0.0732
     24 C20        -2.7307  -10.0589   -8.1725 C.ar      1 <0>        -0.0912
     25 C21        -2.9295  -10.6675   -9.4249 C.ar      1 <0>         0.1647
     26 N3         -3.6503  -11.7557   -9.5235 N.ar      1 <0>        -0.4540
     27 C22        -4.2255  -12.3384   -8.4675 C.ar      1 <0>         0.1871
     28 C23        -4.0888  -11.8157   -7.1922 C.ar      1 <0>        -0.0917
     29 C24        -3.3252  -10.6469   -7.0243 C.ar      1 <0>        -0.0251
     30 C25        -3.1345  -10.0601   -5.7664 C.ar      1 <0>        -0.0751
     31 C26        -4.9998  -13.5278   -8.6583 C.1       1 <0>         0.2516
     32 N4         -5.6140  -14.4714   -8.8097 N.1       1 <0>        -0.3691
     33 N5         -0.2401   -2.6000   -2.2122 N.4       1 <0>        -0.6427
     34 H2         -0.9665    1.8612    0.0259 H         1 <0>         0.1677
     35 H3          1.0933    3.1789    0.0083 H         1 <0>         0.1714
     36 H4          3.2717    2.1606   -0.0175 H         1 <0>         0.1706
     37 H5          3.4952   -2.5561   -0.9413 H         1 <0>         0.1789
     38 H6          3.5129   -2.5667    0.8465 H         1 <0>         0.1862
     39 H7         -0.9210   -0.5647    0.0081 H         1 <0>         0.1605
     40 H8          1.1268   -3.9987    0.5563 H         1 <0>         0.1620
     41 H9         -0.2596   -2.8905    0.4214 H         1 <0>         0.1370
     42 H10         0.0767   -5.6752   -0.8223 H         1 <0>         0.1220
     43 H11        -1.3877   -4.6916   -1.0596 H         1 <0>         0.1001
     44 H12        -0.9585   -6.6517   -5.0839 H         1 <0>         0.1515
     45 H13        -3.3322   -9.7325   -3.2757 H         1 <0>         0.1717
     46 H14        -1.7218   -6.7554   -0.8769 H         1 <0>         0.1572
     47 H15        -1.2017   -7.4356   -6.7071 H         1 <0>         0.1304
     48 H16        -1.5076   -8.4381   -8.9021 H         1 <0>         0.1456
     49 H17        -2.4857  -10.2347  -10.3093 H         1 <0>         0.1802
     50 H18        -4.5584  -12.2947   -6.3459 H         1 <0>         0.1558
     51 H19        -3.5780  -10.5008   -4.8858 H         1 <0>         0.1440
     52 H20         0.3232   -1.7629   -2.2183 H         1 <0>         0.4292
     53 H21        -0.3944   -2.9085   -3.1604 H         1 <0>         0.4550
     54 H22         4.5087   -0.3528   -0.0446 H         1 <0>         0.4650
     55 H23        -1.1275   -2.4051   -1.7732 H         1 <0>         0.4386
@<TRIPOS>BOND
     1    1    9 ar
     2    1    2 ar
     3    1   34 1
     4    2    3 ar
     5    2   35 1
     6    3    4 ar
     7    3   36 1
     8    4    8 ar
     9    4    5 2
    10    5    6 1
    11    5   54 1
    12    6    7 1
    13    6   37 1
    14    6   38 1
    15    7    8 2
    16    7   10 1
    17    8    9 ar
    18    9   39 1
    19   10   11 1
    20   10   40 1
    21   10   41 1
    22   11   12 1
    23   11   13 1
    24   11   33 1
    25   13   14 1
    26   13   42 1
    27   13   43 1
    28   14   15 1
    29   15   20 ar
    30   15   16 ar
    31   16   17 ar
    32   16   44 1
    33   17   18 ar
    34   17   21 1
    35   18   19 ar
    36   18   45 1
    37   19   20 ar
    38   20   46 1
    39   21   30 ar
    40   21   22 ar
    41   22   23 ar
    42   22   47 1
    43   23   24 ar
    44   23   48 1
    45   24   29 ar
    46   24   25 ar
    47   25   26 ar
    48   25   49 1
    49   26   27 ar
    50   27   28 ar
    51   27   31 1
    52   28   29 ar
    53   28   50 1
    54   29   30 ar
    55   30   51 1
    56   31   32 3
    57   33   52 1
    58   33   53 1
    59   33   55 1
@<TRIPOS>MOLECULE
ZINC63625893
   49    51     0     0     0
SMALL
USER_CHARGES

@<TRIPOS>ATOM
      1 C1         -0.0187    1.5258    0.0104 C.3       1 <0>        -0.1527
      2 C2          0.0021   -0.0041    0.0020 C.3       1 <0>        -0.1173
      3 C3          0.7182   -0.4975   -1.2568 C.3       1 <0>        -0.1955
      4 S1          0.7428   -2.3113   -1.2668 S.3       1 <0>         0.3134
      5 C4          1.5892   -2.7179   -2.7577 C.ar      1 <0>        -0.0044
      6 C5          2.0706   -1.6403   -3.6180 C.ar      1 <0>        -0.0053
      7 C6          2.7221   -1.9030   -4.7670 C.ar      1 <0>        -0.1019
      8 C7          2.9524   -3.3024   -5.1608 C.ar      1 <0>         0.3588
      9 N1          3.5398   -3.8319   -6.1948 N.pl3     1 <0>        -0.4876
     10 C8          3.4646   -5.2902   -6.0487 C.3       1 <0>         0.5060
     11 H1          2.9126   -5.7218   -6.8837 H         1 <0>         0.2250
     12 N2          2.7541   -5.5447   -4.7899 N.pl3     1 <0>        -0.5757
     13 C9          2.4534   -4.3827   -4.2686 C.ar      1 <0>         0.3018
     14 C10         1.7811   -4.0255   -3.0733 C.ar      1 <0>        -0.1797
     15 N3          4.8131   -5.8598   -5.9902 N.am      1 <0>        -0.7321
     16 C11         5.5414   -5.9845   -7.1173 C.2       1 <0>         0.5536
     17 O1          5.0805   -5.6253   -8.1801 O.2       1 <0>        -0.4693
     18 C12         6.9286   -6.5704   -7.0571 C.3       1 <0>        -0.1457
     19 S2          7.6435   -6.6043   -8.7240 S.3       1 <0>        -0.1096
     20 C13         9.2896   -7.3267   -8.4808 C.3       1 <0>         0.1497
     21 H2          9.8348   -7.3910   -9.4225 H         1 <0>         0.1656
     22 N4          9.2069   -8.6468   -7.8133 N.pl3     1 <0>        -0.7035
     23 C14         9.8302   -8.6660   -6.5980 C.2       1 <0>         0.3316
     24 N5         10.4263   -7.6368   -6.0918 N.2       1 <0>        -0.4904
     25 S3         10.2473   -6.4008   -7.2137 S.3       1 <0>         0.0263
     26 S4          9.8205  -10.1668   -5.6749 S.3       1 <0>        -0.0196
     27 C15        10.7363   -9.7582   -4.1633 C.3       1 <0>        -0.0957
     28 C16        10.8041  -10.9907   -3.2592 C.3       1 <0>        -0.1442
     29 H3          1.0039    1.9031    0.0027 H         1 <0>         0.0660
     30 H4         -0.5459    1.8868   -0.8726 H         1 <0>         0.0662
     31 H5         -0.5289    1.8773    0.9072 H         1 <0>         0.0809
     32 H6          0.5293   -0.3651    0.8851 H         1 <0>         0.0884
     33 H7         -1.0205   -0.3814    0.0098 H         1 <0>         0.0886
     34 H8          0.1910   -0.1364   -2.1398 H         1 <0>         0.1332
     35 H9          1.7408   -0.1202   -1.2645 H         1 <0>         0.1328
     36 H10         1.9008   -0.6141   -3.3275 H         1 <0>         0.1985
     37 H11         3.0716   -1.0953   -5.3930 H         1 <0>         0.2106
     38 H12         1.4158   -4.7968   -2.4115 H         1 <0>         0.1989
     39 H13         5.1817   -6.1471   -5.1403 H         1 <0>         0.4337
     40 H14         7.5534   -5.9588   -6.4062 H         1 <0>         0.1363
     41 H15         6.8775   -7.5853   -6.6629 H         1 <0>         0.1296
     42 H16         8.7580   -9.4156   -8.1984 H         1 <0>         0.4365
     43 H17        11.7466   -9.4432   -4.4245 H         1 <0>         0.1008
     44 H18        10.2280   -8.9497   -3.6379 H         1 <0>         0.0948
     45 H19         9.7938  -11.3056   -2.9980 H         1 <0>         0.0673
     46 H20        11.3123  -11.7992   -3.7846 H         1 <0>         0.0725
     47 H21        11.3543  -10.7451   -2.3509 H         1 <0>         0.0879
     48 H22         3.9520   -3.3500   -6.9288 H         1 <0>         0.4880
     49 H23         2.5455   -6.4142   -4.4138 H         1 <0>         0.4872
@<TRIPOS>BOND
     1    1    2 1
     2    1   29 1
     3    1   30 1
     4    1   31 1
     5    2    3 1
     6    2   32 1
     7    2   33 1
     8    3    4 1
     9    3   34 1
    10    3   35 1
    11    4    5 1
    12    5   14 ar
    13    5    6 ar
    14    6    7 ar
    15    6   36 1
    16    7    8 ar
    17    7   37 1
    18    8   13 ar
    19    8    9 2
    20    9   10 1
    21    9   48 1
    22   10   11 1
    23   10   12 1
    24   10   15 1
    25   12   13 2
    26   12   49 1
    27   13   14 ar
    28   14   38 1
    29   15   16 am
    30   15   39 1
    31   16   17 2
    32   16   18 1
    33   18   19 1
    34   18   40 1
    35   18   41 1
    36   19   20 1
    37   20   21 1
    38   20   25 1
    39   20   22 1
    40   22   23 1
    41   22   42 1
    42   23   24 2
    43   23   26 1
    44   24   25 1
    45   26   27 1
    46   27   28 1
    47   27   43 1
    48   27   44 1
    49   28   45 1
    50   28   46 1
    51   28   47 1
@<TRIPOS>MOLECULE
ZINC64502621
   67    70     0     0     0
SMALL
USER_CHARGES

@<TRIPOS>ATOM
      1 C1          1.0349    1.3852    0.3392 C.3       1 <0>        -0.1743
      2 C2          0.7395   -0.1125    0.2371 C.3       1 <0>         0.0594
      3 H1          1.3193   -0.5569   -0.5720 H         1 <0>         0.1524
      4 C3         -0.7369   -0.3406    0.0095 C.2       1 <0>        -0.0971
      5 C4         -1.3002   -0.7065    1.1337 C.2       1 <0>        -0.1466
      6 C5         -0.2568   -0.7597    2.2256 C.3       1 <0>         0.0411
      7 H2         -0.3812   -1.6629    2.8230 H         1 <0>         0.1644
      8 N1          1.0495   -0.7857    1.5207 N.4       1 <0>        -0.4995
      9 C6         -0.3552    0.4625    3.1017 C.2       1 <0>         0.5113
     10 O1          0.3272    1.4363    2.8630 O.2       1 <0>        -0.5150
     11 N2         -1.2016    0.4734    4.1505 N.am      1 <0>        -0.5835
     12 C7         -2.1109   -0.6555    4.3904 C.3       1 <0>         0.0896
     13 C8         -3.5417   -0.1203    4.5051 C.3       1 <0>        -0.1352
     14 C9         -3.5909    0.9662    5.5818 C.3       1 <0>        -0.0742
     15 C10        -2.6727    2.1238    5.1831 C.3       1 <0>        -0.1346
     16 C11        -1.2281    1.6116    5.0793 C.3       1 <0>         0.1103
     17 C12        -5.0255    1.4790    5.7233 C.3       1 <0>        -0.1387
     18 C13        -5.0981    2.4592    6.8656 C.2       1 <0>         0.5175
     19 O2         -4.1007    2.7219    7.5037 O.2       1 <0>        -0.5274
     20 N3         -6.2715    3.0441    7.1782 N.am      1 <0>        -0.7363
     21 C14        -6.3421    3.9970    8.2887 C.3       1 <0>         0.1248
     22 C15        -7.7767    4.5097    8.4302 C.3       1 <0>        -0.1038
     23 C16        -7.8493    5.4900    9.5725 C.2       1 <0>         0.0640
     24 C17        -7.7647    6.8376    9.4943 C.ar      1 <0>        -0.1633
     25 C18        -7.5853    7.7588    8.3657 C.ar      1 <0>        -0.0177
     26 C19        -7.5367    9.0888    8.6059 C.ar      1 <0>        -0.1461
     27 C20        -7.6526    9.6083    9.9025 C.ar      1 <0>         0.0546
     28 C21        -7.8195    8.8256   10.9895 C.ar      1 <0>        -0.2081
     29 C22        -7.8851    7.4114   10.8536 C.ar      1 <0>         0.3284
     30 N4         -8.0382    6.4557   11.7378 N.pl3     1 <0>        -0.5830
     31 C23        -8.0383    5.1663   11.0377 C.3       1 <0>         0.0609
     32 C24        -2.7624   -1.0251    1.3111 C.3       1 <0>        -0.1135
     33 C25        -1.4505   -0.1729   -1.3072 C.3       1 <0>        -0.1112
     34 H3          2.0247    1.5317    0.7716 H         1 <0>         0.0854
     35 H4          1.0034    1.8304   -0.6552 H         1 <0>         0.1008
     36 H5          0.2871    1.8605    0.9740 H         1 <0>         0.1020
     37 H6          1.3518   -1.7353    1.3624 H         1 <0>         0.4416
     38 H7         -2.0490   -1.3576    3.5590 H         1 <0>         0.0884
     39 H8         -1.8333   -1.1578    5.3170 H         1 <0>         0.0888
     40 H9         -3.8502    0.3014    3.5484 H         1 <0>         0.0761
     41 H10        -4.2137   -0.9338    4.7783 H         1 <0>         0.0902
     42 H11        -3.2587    0.5502    6.5329 H         1 <0>         0.0876
     43 H12        -2.9894    2.5243    4.2200 H         1 <0>         0.0652
     44 H13        -2.7261    2.9075    5.9388 H         1 <0>         0.1001
     45 H14        -0.8800    1.2903    6.0610 H         1 <0>         0.0837
     46 H15        -0.5835    2.4057    4.7025 H         1 <0>         0.1002
     47 H16        -5.3272    1.9739    4.8002 H         1 <0>         0.0990
     48 H17        -5.6932    0.6405    5.9210 H         1 <0>         0.1026
     49 H18        -7.0692    2.8340    6.6678 H         1 <0>         0.4073
     50 H19        -6.0404    3.5021    9.2118 H         1 <0>         0.0786
     51 H20        -5.6744    4.8355    8.0909 H         1 <0>         0.0791
     52 H21        -8.0784    5.0046    7.5071 H         1 <0>         0.1155
     53 H22        -8.4444    3.6712    8.6279 H         1 <0>         0.1188
     54 H23        -7.4931    7.3800    7.3585 H         1 <0>         0.1595
     55 H24        -7.4048    9.7684    7.7769 H         1 <0>         0.1587
     56 H25        -7.6062   10.6789   10.0375 H         1 <0>         0.1627
     57 H26        -7.9033    9.2756   11.9677 H         1 <0>         0.1623
     58 H27        -8.9883    4.6539   11.1898 H         1 <0>         0.1756
     59 H28        -7.2154    4.5472   11.3949 H         1 <0>         0.1736
     60 H29        -3.2617   -0.9911    0.3428 H         1 <0>         0.0916
     61 H30        -2.8677   -2.0218    1.7395 H         1 <0>         0.0862
     62 H31        -3.2154   -0.2927    1.9794 H         1 <0>         0.0846
     63 H32        -1.4355   -1.1172   -1.8514 H         1 <0>         0.0930
     64 H33        -2.4831    0.1253   -1.1255 H         1 <0>         0.0873
     65 H34        -0.9492    0.5944   -1.8971 H         1 <0>         0.0849
     66 H35        -8.1387    6.5804   12.6945 H         1 <0>         0.4574
     67 H36         1.7457   -0.2685    2.0365 H         1 <0>         0.4422
@<TRIPOS>BOND
     1    1    2 1
     2    1   34 1
     3    1   35 1
     4    1   36 1
     5    2    3 1
     6    2    8 1
     7    2    4 1
     8    4    5 2
     9    4   33 1
    10    5    6 1
    11    5   32 1
    12    6    7 1
    13    6    8 1
    14    6    9 1
    15    8   37 1
    16    8   67 1
    17    9   10 2
    18    9   11 am
    19   11   16 1
    20   11   12 1
    21   12   13 1
    22   12   38 1
    23   12   39 1
    24   13   14 1
    25   13   40 1
    26   13   41 1
    27   14   15 1
    28   14   17 1
    29   14   42 1
    30   15   16 1
    31   15   43 1
    32   15   44 1
    33   16   45 1
    34   16   46 1
    35   17   18 1
    36   17   47 1
    37   17   48 1
    38   18   19 2
    39   18   20 am
    40   20   21 1
    41   20   49 1
    42   21   22 1
    43   21   50 1
    44   21   51 1
    45   22   23 1
    46   22   52 1
    47   22   53 1
    48   23   31 1
    49   23   24 2
    50   24   29 ar
    51   24   25 ar
    52   25   26 ar
    53   25   54 1
    54   26   27 ar
    55   26   55 1
    56   27   28 ar
    57   27   56 1
    58   28   29 ar
    59   28   57 1
    60   29   30 2
    61   30   31 1
    62   30   66 1
    63   31   58 1
    64   31   59 1
    65   32   60 1
    66   32   61 1
    67   32   62 1
    68   33   63 1
    69   33   64 1
    70   33   65 1
@<TRIPOS>MOLECULE
ZINC27252135
   45    46     0     0     0
SMALL
USER_CHARGES
2-chloro-N-[(1R)-2-(N'-(cyclopentylcarbamothioyl)hydrazino)-1-methyl-2-oxo-ethyl]benzamide
@<TRIPOS>ATOM
      1 C1          4.2263    4.6333    3.9237 C.3       1 <0>        -0.1635
      2 C2          4.2622    3.4076    4.8387 C.3       1 <0>         0.1431
      3 H1          4.7746    2.5653    4.3509 H         1 <0>         0.1238
      4 C3          2.8544    3.0089    5.1998 C.2       1 <0>         0.5228
      5 O1          2.5070    2.9958    6.3617 O.2       1 <0>        -0.5225
      6 N1          1.9815    2.6670    4.2315 N.am      1 <0>        -0.5518
      7 N2          0.6728    2.2963    4.5672 N.pl3     1 <0>        -0.4828
      8 C4         -0.2001    1.9544    3.5989 C.2       1 <0>         0.5681
      9 S1         -1.7994    1.5015    4.0091 S.2       1 <0>        -0.6042
     10 N3          0.1860    1.9690    2.3077 N.pl3     1 <0>        -0.6930
     11 C5         -0.7629    1.5973    1.2552 C.3       1 <0>         0.1331
     12 C6         -0.0127    1.0858    0.0080 C.3       1 <0>        -0.1300
     13 C7         -0.7845    1.6092   -1.2159 C.3       1 <0>        -0.1235
     14 C8         -1.9779    2.4205   -0.6705 C.3       1 <0>        -0.1182
     15 C9         -1.5309    2.8450    0.7505 C.3       1 <0>        -0.1267
     16 N4          5.0064    3.7305    6.0586 N.am      1 <0>        -0.7262
     17 C10         6.3497    3.6228    6.0768 C.2       1 <0>         0.5633
     18 O2          6.9438    3.2577    5.0811 O.2       1 <0>        -0.5141
     19 C11         7.1004    3.9484    7.3073 C.ar      1 <0>        -0.1323
     20 C12         6.4218    4.3736    8.4511 C.ar      1 <0>        -0.0725
     21 C13         7.1278    4.6704    9.5978 C.ar      1 <0>        -0.1233
     22 C14         8.5074    4.5590    9.6141 C.ar      1 <0>        -0.0779
     23 C15         9.1875    4.1442    8.4840 C.ar      1 <0>        -0.1209
     24 C16         8.4928    3.8379    7.3298 C.ar      1 <0>         0.0147
     25 Cl1         9.3477    3.3178    5.9113 Cl        1 <0>        -0.0290
     26 H2          5.2538    4.9243    3.6601 H         1 <0>         0.0846
     27 H3          3.7318    5.4659    4.4454 H         1 <0>         0.0703
     28 H4          3.6675    4.3908    3.0078 H         1 <0>         0.0698
     29 H5          2.2966    2.6790    3.1777 H         1 <0>         0.4402
     30 H6          0.3577    2.2843    5.6210 H         1 <0>         0.4890
     31 H7          1.2135    2.2600    2.0441 H         1 <0>         0.3994
     32 H8         -1.4001    0.8391    1.7338 H         1 <0>         0.1280
     33 H9          1.0174    1.4715    0.0159 H         1 <0>         0.0671
     34 H10         0.0075   -0.0140    0.0176 H         1 <0>         0.0760
     35 H11        -0.1226    2.2448   -1.8224 H         1 <0>         0.0669
     36 H12        -1.1321    0.7591   -1.8212 H         1 <0>         0.0705
     37 H13        -2.1601    3.2877   -1.3222 H         1 <0>         0.0708
     38 H14        -2.8746    1.7838   -0.6482 H         1 <0>         0.0742
     39 H15        -2.3799    3.0484    1.4197 H         1 <0>         0.0844
     40 H16        -0.8550    3.7128    0.7415 H         1 <0>         0.0672
     41 H17         4.4688    4.0608    6.9596 H         1 <0>         0.4314
     42 H18         5.3457    4.4655    8.4391 H         1 <0>         0.1354
     43 H19         6.6032    4.9950   10.4843 H         1 <0>         0.1378
     44 H20         9.0552    4.7975   10.5138 H         1 <0>         0.1391
     45 H21        10.2640    4.0597    8.5035 H         1 <0>         0.1418
@<TRIPOS>BOND
     1    1    2 1
     2    1   26 1
     3    1   27 1
     4    1   28 1
     5    2    3 1
     6    2    4 1
     7    2   16 1
     8    4    5 2
     9    4    6 am
    10    6    7 1
    11    6   29 1
    12    7    8 1
    13    7   30 1
    14    8    9 2
    15    8   10 1
    16   10   11 1
    17   10   31 1
    18   11   15 1
    19   11   12 1
    20   11   32 1
    21   12   13 1
    22   12   33 1
    23   12   34 1
    24   13   14 1
    25   13   35 1
    26   13   36 1
    27   14   15 1
    28   14   37 1
    29   14   38 1
    30   15   39 1
    31   15   40 1
    32   16   17 am
    33   16   41 1
    34   17   18 2
    35   17   19 1
    36   19   24 ar
    37   19   20 ar
    38   20   21 ar
    39   20   42 1
    40   21   22 ar
    41   21   43 1
    42   22   23 ar
    43   22   44 1
    44   23   24 ar
    45   23   45 1
    46   24   25 1
@<TRIPOS>MOLECULE
ZINC42085332
   54    55     0     0     0
SMALL
USER_CHARGES

@<TRIPOS>ATOM
      1 C1         -0.0184    1.5028    0.0103 C.3       1 <0>        -0.1239
      2 C2          0.0021   -0.0041    0.0020 C.ar      1 <0>        -0.0552
      3 C3          0.0057   -0.6863   -1.2019 C.ar      1 <0>        -0.1241
      4 C4          0.0249   -2.0655   -1.2165 C.ar      1 <0>        -0.0851
      5 C5          0.0405   -2.7730   -0.0133 C.ar      1 <0>        -0.1427
      6 C6          0.0368   -2.0788    1.1974 C.ar      1 <0>        -0.0529
      7 C7          0.0229   -0.6991    1.1980 C.ar      1 <0>        -0.0951
      8 C8          0.0245    0.0523    2.5043 C.3       1 <0>        -0.1184
      9 C9          0.0606   -4.2513   -0.0214 C.2       1 <0>         0.5687
     10 O1          0.0742   -4.8647    1.0279 O.2       1 <0>        -0.5328
     11 N1          0.0638   -4.9187   -1.1923 N.am      1 <0>        -0.7188
     12 C10         0.0836   -6.3836   -1.2003 C.3       1 <0>         0.1124
     13 C11         0.0832   -6.8781   -2.6239 C.2       1 <0>         0.5174
     14 O2          0.0678   -6.0851   -3.5414 O.2       1 <0>        -0.5139
     15 N2          0.0999   -8.2017   -2.8775 N.am      1 <0>        -0.5444
     16 N3          0.0994   -8.6615   -4.2009 N.pl3     1 <0>        -0.4724
     17 C12         0.1162   -9.9851   -4.4544 C.2       1 <0>         0.5612
     18 S1          0.1156  -10.5469   -6.0716 S.2       1 <0>        -0.5840
     19 N4          0.1333  -10.8664   -3.4349 N.pl3     1 <0>        -0.6718
     20 C13         0.1514  -12.3051   -3.7105 C.3       1 <0>         0.1500
     21 H1         -0.4398  -12.5116   -4.6027 H         1 <0>         0.1201
     22 C14         1.5937  -12.7628   -3.9372 C.3       1 <0>        -0.1330
     23 C15         2.4235  -12.4729   -2.6849 C.3       1 <0>        -0.1203
     24 C16         1.8301  -13.2279   -1.4938 C.3       1 <0>        -0.1237
     25 C17         0.3879  -12.7702   -1.2671 C.3       1 <0>        -0.1168
     26 C18        -0.4420  -13.0601   -2.5194 C.3       1 <0>        -0.1019
     27 H2         -0.4285  -14.1305   -2.7245 H         1 <0>         0.0971
     28 C19        -1.8842  -12.6024   -2.2927 C.3       1 <0>        -0.1504
     29 H3          1.0042    1.8801    0.0026 H         1 <0>         0.0768
     30 H4         -0.5455    1.8639   -0.8728 H         1 <0>         0.0710
     31 H5         -0.5286    1.8543    0.9071 H         1 <0>         0.0734
     32 H6         -0.0068   -0.1377   -2.1321 H         1 <0>         0.1312
     33 H7          0.0273   -2.5967   -2.1568 H         1 <0>         0.1270
     34 H8          0.0488   -2.6203    2.1318 H         1 <0>         0.1372
     35 H9         -1.0026    0.2192    2.8288 H         1 <0>         0.0740
     36 H10         0.5535   -0.5307    3.2581 H         1 <0>         0.0700
     37 H11         0.5238    1.0120    2.3708 H         1 <0>         0.0720
     38 H12         0.0529   -4.4292   -2.0296 H         1 <0>         0.4140
     39 H13         0.9811   -6.7376   -0.6930 H         1 <0>         0.1113
     40 H14        -0.7987   -6.7618   -0.6840 H         1 <0>         0.1113
     41 H15         0.1122   -8.8360   -2.1437 H         1 <0>         0.4224
     42 H16         0.0871   -8.0272   -4.9347 H         1 <0>         0.4594
     43 H17         0.1336  -10.5480   -2.5186 H         1 <0>         0.3896
     44 H18         1.6072  -13.8332   -4.1423 H         1 <0>         0.0816
     45 H19         2.0164  -12.2249   -4.7858 H         1 <0>         0.0835
     46 H20         3.4510  -12.7989   -2.8464 H         1 <0>         0.0671
     47 H21         2.4100  -11.4024   -2.4798 H         1 <0>         0.0530
     48 H22         1.8436  -14.2983   -1.6989 H         1 <0>         0.0686
     49 H23         2.4213  -13.0214   -0.6016 H         1 <0>         0.0644
     50 H24        -0.0349  -13.3081   -0.4185 H         1 <0>         0.0723
     51 H25         0.3744  -11.6997   -1.0620 H         1 <0>         0.0510
     52 H26        -2.4754  -12.8089   -3.1849 H         1 <0>         0.0628
     53 H27        -2.3070  -13.1403   -1.4442 H         1 <0>         0.0624
     54 H28        -1.8977  -11.5319   -2.0876 H         1 <0>         0.0477
@<TRIPOS>BOND
     1    1    2 1
     2    1   29 1
     3    1   30 1
     4    1   31 1
     5    2    7 ar
     6    2    3 ar
     7    3    4 ar
     8    3   32 1
     9    4    5 ar
    10    4   33 1
    11    5    6 ar
    12    5    9 1
    13    6    7 ar
    14    6   34 1
    15    7    8 1
    16    8   35 1
    17    8   36 1
    18    8   37 1
    19    9   10 2
    20    9   11 am
    21   11   12 1
    22   11   38 1
    23   12   13 1
    24   12   39 1
    25   12   40 1
    26   13   14 2
    27   13   15 am
    28   15   16 1
    29   15   41 1
    30   16   17 1
    31   16   42 1
    32   17   18 2
    33   17   19 1
    34   19   20 1
    35   19   43 1
    36   20   21 1
    37   20   26 1
    38   20   22 1
    39   22   23 1
    40   22   44 1
    41   22   45 1
    42   23   24 1
    43   23   46 1
    44   23   47 1
    45   24   25 1
    46   24   48 1
    47   24   49 1
    48   25   26 1
    49   25   50 1
    50   25   51 1
    51   26   27 1
    52   26   28 1
    53   28   52 1
    54   28   53 1
    55   28   54 1
@<TRIPOS>MOLECULE
ZINC56206823
   45    46     0     0     0
SMALL
USER_CHARGES

@<TRIPOS>ATOM
      1 C1          0.0005    1.4935    0.0050 C.3       1 <0>        -0.1097
      2 C2          0.0304   -0.0132   -0.0021 C.ar      1 <0>        -0.1118
      3 C3          0.0444   -0.6983   -1.2014 C.ar      1 <0>        -0.0976
      4 C4          0.0719   -2.0848   -1.2081 C.ar      1 <0>         0.0778
      5 C5          0.0853   -2.7849   -0.0106 C.ar      1 <0>        -0.1657
      6 C6          0.0713   -2.1016    1.1893 C.ar      1 <0>        -0.1576
      7 C7          0.0496   -0.7130    1.1969 C.ar      1 <0>         0.1860
      8 N1          0.0412   -0.0196    2.4124 N.pl3     1 <0>        -0.7326
      9 C8          0.0615   -0.7584    3.6773 C.3       1 <0>         0.1392
     10 H1          0.6684   -1.6567    3.5638 H         1 <0>         0.1112
     11 C9         -1.3663   -1.1527    4.0606 C.3       1 <0>        -0.1708
     12 C10         0.6495    0.1118    4.7580 C.2       1 <0>         0.5143
     13 O1          1.0157    1.2384    4.4973 O.2       1 <0>        -0.5031
     14 N2          0.7686   -0.3617    6.0142 N.am      1 <0>        -0.6632
     15 C11         1.4194    0.4016    6.9915 C.ar      1 <0>         0.1484
     16 C12         2.3622    1.3497    6.6194 C.ar      1 <0>        -0.1447
     17 C13         3.0032    2.1025    7.5871 C.ar      1 <0>         0.1172
     18 C14         2.7047    1.9107    8.9258 C.ar      1 <0>        -0.1424
     19 C15         1.7664    0.9666    9.2993 C.ar      1 <0>        -0.0994
     20 C16         1.1182    0.2151    8.3360 C.ar      1 <0>         0.0578
     21 F1          0.1973   -0.7034    8.7015 F         1 <0>        -0.1320
     22 F2          3.9214    3.0254    7.2258 F         1 <0>        -0.1282
     23 O2          0.0852   -2.7585   -2.3895 O.3       1 <0>        -0.2927
     24 C17         0.1135   -4.1857   -2.3221 C.3       1 <0>         0.0419
     25 C18         0.1248   -4.7543   -3.7176 C.2       1 <0>         0.5184
     26 O3          0.1100   -4.0107   -4.6756 O.2       1 <0>        -0.5169
     27 N3          0.1512   -6.0893   -3.9012 N.am      1 <0>        -0.8514
     28 H2          1.0207    1.8772    0.0022 H         1 <0>         0.0720
     29 H3         -0.5244    1.8506   -0.8810 H         1 <0>         0.0718
     30 H4         -0.5164    1.8425    0.8989 H         1 <0>         0.0627
     31 H5          0.0336   -0.1540   -2.1342 H         1 <0>         0.1339
     32 H6          0.1064   -3.8647   -0.0168 H         1 <0>         0.1266
     33 H7          0.0814   -2.6468    2.1215 H         1 <0>         0.1246
     34 H8          0.0220    0.9502    2.4175 H         1 <0>         0.4102
     35 H9         -1.9732   -0.2544    4.1742 H         1 <0>         0.0690
     36 H10        -1.7917   -1.7821    3.2789 H         1 <0>         0.0801
     37 H11        -1.3513   -1.7024    5.0017 H         1 <0>         0.0699
     38 H12         0.4035   -1.2311    6.2415 H         1 <0>         0.4198
     39 H13         2.5955    1.4995    5.5756 H         1 <0>         0.1671
     40 H14         3.2063    2.4995    9.6795 H         1 <0>         0.1496
     41 H15         1.5362    0.8187   10.3440 H         1 <0>         0.1530
     42 H16         1.0100   -4.5067   -1.7917 H         1 <0>         0.0921
     43 H17        -0.7696   -4.5419   -1.7917 H         1 <0>         0.0923
     44 H18         0.1630   -6.6840   -3.1350 H         1 <0>         0.4031
     45 H19         0.1585   -6.4553   -4.7994 H         1 <0>         0.4095
@<TRIPOS>BOND
     1    1    2 1
     2    1   28 1
     3    1   29 1
     4    1   30 1
     5    2    7 ar
     6    2    3 ar
     7    3    4 ar
     8    3   31 1
     9    4    5 ar
    10    4   23 1
    11    5    6 ar
    12    5   32 1
    13    6    7 ar
    14    6   33 1
    15    7    8 1
    16    8    9 1
    17    8   34 1
    18    9   10 1
    19    9   11 1
    20    9   12 1
    21   11   35 1
    22   11   36 1
    23   11   37 1
    24   12   13 2
    25   12   14 am
    26   14   15 1
    27   14   38 1
    28   15   20 ar
    29   15   16 ar
    30   16   17 ar
    31   16   39 1
    32   17   18 ar
    33   17   22 1
    34   18   19 ar
    35   18   40 1
    36   19   20 ar
    37   19   41 1
    38   20   21 1
    39   23   24 1
    40   24   25 1
    41   24   42 1
    42   24   43 1
    43   25   26 2
    44   25   27 am
    45   27   44 1
    46   27   45 1
@<TRIPOS>MOLECULE
ZINC13520530
   45    46     0     0     0
SMALL
NO_CHARGES

@<TRIPOS>ATOM
      1 C1          2.3076   -1.9613    1.2394 C.3       1 <0>        -0.1846
      2 C2          1.2825   -0.9652    0.6938 C.3       1 <0>        -0.0098
      3 N1          0.0179   -1.1131    1.4265 N.4       1 <0>        -0.3112
      4 C3         -0.9317   -0.0866    0.9766 C.3       1 <0>        -0.0101
      5 C4         -2.1999   -0.1560    1.8297 C.3       1 <0>        -0.1803
      6 C5         -0.5166   -2.3816    1.1821 C.ar      1 <0>        -0.1101
      7 C6         -0.8266   -2.7622   -0.1107 C.ar      1 <0>        -0.0473
      8 C7         -1.3552   -4.0144   -0.3556 C.ar      1 <0>        -0.1453
      9 C8         -1.5750   -4.8919    0.6983 C.ar      1 <0>         0.2420
     10 C9         -1.2622   -4.5067    1.9955 C.ar      1 <0>        -0.1662
     11 C10        -0.7290   -3.2550    2.2329 C.ar      1 <0>        -0.0486
     12 N2         -2.1107   -6.1606    0.4538 N.pl3     1 <0>        -0.6475
     13 C11        -2.8204   -6.8051    1.4332 C.2       1 <0>         0.6521
     14 N3         -3.4467   -6.0823    2.4130 N.pl3     1 <0>        -0.8356
     15 N4         -2.8998   -8.1195    1.4319 N.2       1 <0>        -0.5548
     16 C12        -2.1410   -8.8461    0.5671 C.ar      1 <0>         0.5375
     17 N5         -2.3264  -10.1612    0.4864 N.ar      1 <0>        -0.5537
     18 C13        -1.6064  -10.8978   -0.3441 C.ar      1 <0>         0.1078
     19 C14        -0.6503  -10.2878   -1.1359 C.ar      1 <0>        -0.2854
     20 C15        -0.4772   -8.9079   -1.0307 C.ar      1 <0>         0.4558
     21 N6         -1.2345   -8.2249   -0.1823 N.ar      1 <0>        -0.6523
     22 O1          0.4493   -8.2726   -1.7886 O.3       1 <0>        -0.6869
     23 C16        -1.8254  -12.3866   -0.4261 C.3       1 <0>         0.5228
     24 F1         -2.9119  -12.7432    0.3798 F         1 <0>        -0.1660
     25 F2         -2.0901  -12.7467   -1.7518 F         1 <0>        -0.1755
     26 F3         -0.6775  -13.0520    0.0176 F         1 <0>        -0.1758
     27 H1          3.2171   -1.9114    0.6407 H         1 <0>         0.1015
     28 H2          2.5402   -1.7129    2.2749 H         1 <0>         0.0756
     29 H3          1.8958   -2.9694    1.1913 H         1 <0>         0.0858
     30 H4          1.6592    0.0498    0.8204 H         1 <0>         0.1266
     31 H5          1.1139   -1.1607   -0.3652 H         1 <0>         0.1258
     32 H6         -0.4776    0.8989    1.0804 H         1 <0>         0.1262
     33 H7         -1.1869   -0.2608   -0.0687 H         1 <0>         0.1257
     34 H8         -2.7025   -1.1077    1.6567 H         1 <0>         0.0832
     35 H9         -1.9341   -0.0718    2.8834 H         1 <0>         0.0752
     36 H10        -2.8667    0.6618    1.5566 H         1 <0>         0.0996
     37 H11        -0.6555   -2.0793   -0.9298 H         1 <0>         0.1389
     38 H12        -1.5978   -4.3108   -1.3654 H         1 <0>         0.1474
     39 H13        -1.4323   -5.1866    2.8172 H         1 <0>         0.1517
     40 H14        -0.4814   -2.9564    3.2409 H         1 <0>         0.1409
     41 H15        -1.9799   -6.5843   -0.4089 H         1 <0>         0.4449
     42 H16        -3.5607   -5.1244    2.3113 H         1 <0>         0.4059
     43 H17        -0.0500  -10.8680   -1.8210 H         1 <0>         0.1289
     44 H18        -3.7765   -6.5282    3.2089 H         1 <0>         0.4244
     45 H19         0.1873   -1.0044    2.4152 H         1 <0>         0.4208
@<TRIPOS>BOND
     1    1    2 1
     2    1   27 1
     3    1   28 1
     4    1   29 1
     5    2    3 1
     6    2   30 1
     7    2   31 1
     8    3    4 1
     9    3    6 1
    10    3   45 1
    11    4    5 1
    12    4   32 1
    13    4   33 1
    14    5   34 1
    15    5   35 1
    16    5   36 1
    17    6   11 ar
    18    6    7 ar
    19    7    8 ar
    20    7   37 1
    21    8    9 ar
    22    8   38 1
    23    9   10 ar
    24    9   12 1
    25   10   11 ar
    26   10   39 1
    27   11   40 1
    28   12   13 1
    29   12   41 1
    30   13   14 1
    31   13   15 2
    32   14   42 1
    33   14   44 1
    34   15   16 1
    35   16   21 ar
    36   16   17 ar
    37   17   18 ar
    38   18   19 ar
    39   18   23 1
    40   19   20 ar
    41   19   43 1
    42   20   21 ar
    43   20   22 1
    44   23   24 1
    45   23   25 1
    46   23   26 1
@<TRIPOS>MOLECULE
ZINC67638026
   46    48     0     0     0
SMALL
USER_CHARGES

@<TRIPOS>ATOM
      1 C1         -1.6457    0.5934   -3.0799 C.3       1 <0>        -0.1747
      2 C2         -1.8376   -0.5606   -2.1299 C.2       1 <0>         0.5120
      3 O1         -2.9456   -0.8260   -1.7140 O.2       1 <0>        -0.5309
      4 N1         -0.7780   -1.2979   -1.7424 N.am      1 <0>        -0.6729
      5 C3         -0.9405   -2.3099   -0.7899 C.ar      1 <0>         0.1461
      6 C4          0.0713   -2.5723    0.1256 C.ar      1 <0>        -0.1343
      7 C5         -0.0886   -3.5708    1.0666 C.ar      1 <0>        -0.0901
      8 C6         -1.2544   -4.3118    1.1009 C.ar      1 <0>        -0.0856
      9 C7         -2.2695   -4.0547    0.1882 C.ar      1 <0>         0.1393
     10 C8         -2.1143   -3.0484   -0.7548 C.ar      1 <0>        -0.1234
     11 N2         -3.4493   -4.8055    0.2232 N.pl3     1 <0>        -0.6282
     12 C9         -3.3953   -6.1364    0.4289 C.2       1 <0>         0.5540
     13 S1         -1.8802   -6.9303    0.5031 S.2       1 <0>        -0.5610
     14 N3         -4.5339   -6.8424    0.5761 N.pl3     1 <0>        -0.4633
     15 N4         -5.7737   -6.1927    0.5154 N.am      1 <0>        -0.5474
     16 C10        -6.9123   -6.8987    0.6627 C.2       1 <0>         0.5529
     17 O2         -6.8636   -8.0963    0.8477 O.2       1 <0>        -0.5141
     18 C11        -8.2459   -6.1999    0.5973 C.3       1 <0>        -0.1776
     19 H1         -8.2671   -5.1885    1.0032 H         1 <0>         0.1366
     20 C12        -9.1404   -6.4963   -0.6080 C.3       1 <0>        -0.1363
     21 C13        -9.5016   -7.0568    0.7699 C.3       1 <0>        -0.0730
     22 H2         -9.3632   -8.1260    0.9306 H         1 <0>         0.1346
     23 C14       -10.6733   -6.4377    1.4875 C.ar      1 <0>        -0.0317
     24 C15       -11.2684   -5.2964    0.9824 C.ar      1 <0>        -0.1301
     25 C16       -12.3432   -4.7275    1.6395 C.ar      1 <0>        -0.0854
     26 C17       -12.8239   -5.2987    2.8027 C.ar      1 <0>        -0.1531
     27 C18       -12.2288   -6.4414    3.3094 C.ar      1 <0>         0.1038
     28 C19       -11.1560   -7.0140    2.6468 C.ar      1 <0>        -0.1418
     29 F1        -12.6975   -7.0004    4.4465 F         1 <0>        -0.1364
     30 H3         -2.6080    1.0664   -3.2760 H         1 <0>         0.0971
     31 H4         -0.9671    1.3212   -2.6350 H         1 <0>         0.0934
     32 H5         -1.2233    0.2273   -4.0156 H         1 <0>         0.0928
     33 H6          0.0973   -1.1270   -2.1239 H         1 <0>         0.4149
     34 H7          0.9838   -1.9951    0.1011 H         1 <0>         0.1299
     35 H8          0.6995   -3.7731    1.7768 H         1 <0>         0.1356
     36 H9         -1.3763   -5.0918    1.8378 H         1 <0>         0.1456
     37 H10        -2.9040   -2.8433   -1.4624 H         1 <0>         0.1418
     38 H11        -4.3063   -4.3683    0.0994 H         1 <0>         0.4020
     39 H12        -4.4949   -7.8002    0.7242 H         1 <0>         0.4614
     40 H13        -5.8126   -5.2349    0.3674 H         1 <0>         0.4226
     41 H14        -9.7504   -5.6800   -0.9949 H         1 <0>         0.1182
     42 H15        -8.7644   -7.1967   -1.3537 H         1 <0>         0.1120
     43 H16       -10.8930   -4.8490    0.0740 H         1 <0>         0.1323
     44 H17       -12.8072   -3.8360    1.2441 H         1 <0>         0.1363
     45 H18       -13.6632   -4.8536    3.3164 H         1 <0>         0.1376
     46 H19       -10.6938   -7.9080    3.0387 H         1 <0>         0.1385
@<TRIPOS>BOND
     1    1    2 1
     2    1   30 1
     3    1   31 1
     4    1   32 1
     5    2    3 2
     6    2    4 am
     7    4    5 1
     8    4   33 1
     9    5   10 ar
    10    5    6 ar
    11    6    7 ar
    12    6   34 1
    13    7    8 ar
    14    7   35 1
    15    8    9 ar
    16    8   36 1
    17    9   10 ar
    18    9   11 1
    19   10   37 1
    20   11   12 1
    21   11   38 1
    22   12   13 2
    23   12   14 1
    24   14   15 1
    25   14   39 1
    26   15   16 am
    27   15   40 1
    28   16   17 2
    29   16   18 1
    30   18   19 1
    31   18   21 1
    32   18   20 1
    33   20   21 1
    34   20   41 1
    35   20   42 1
    36   21   22 1
    37   21   23 1
    38   23   28 ar
    39   23   24 ar
    40   24   25 ar
    41   24   43 1
    42   25   26 ar
    43   25   44 1
    44   26   27 ar
    45   26   45 1
    46   27   28 ar
    47   27   29 1
    48   28   46 1
@<TRIPOS>MOLECULE
ZINC16553131
   61    63     0     0     0
SMALL
USER_CHARGES
2-(4-acetamidophenyl)sulfanyl-N-(6-amino-1-benzyl-2,4-dioxo-pyrimidin-5-yl)-N-propyl-acetamide
@<TRIPOS>ATOM
      1 C1          4.4797    8.6961   -1.8026 C.3       1 <0>        -0.1510
      2 C2          3.3338    9.6288   -1.4052 C.3       1 <0>        -0.1418
      3 C3          3.1661    9.6115    0.1155 C.3       1 <0>         0.1071
      4 N1          2.0689   10.5046    0.4960 N.am      1 <0>        -0.5128
      5 C4          2.3133   11.8811    0.6861 C.2       1 <0>        -0.1607
      6 C5          1.7800   12.8146   -0.1789 C.2       1 <0>         0.5083
      7 N2          2.0326   14.1497    0.0350 N.am      1 <0>        -0.5336
      8 C6          2.7984   14.5404    1.0698 C.2       1 <0>         0.7143
      9 O1          3.0135   15.7252    1.2394 O.2       1 <0>        -0.5311
     10 N3          3.3307   13.6446    1.9200 N.am      1 <0>        -0.6621
     11 H1          3.8966   13.9613    2.6812 H         1 <0>         0.4403
     12 C7          3.1102   12.3253    1.7579 C.2       1 <0>         0.5694
     13 O2          3.5973   11.5215    2.5349 O.2       1 <0>        -0.5220
     14 C8          1.4686   15.1520   -0.8726 C.3       1 <0>         0.1470
     15 C9          2.4314   15.4032   -2.0044 C.ar      1 <0>        -0.1271
     16 C10         3.3906   16.3919   -1.8893 C.ar      1 <0>        -0.0856
     17 C11         4.2769   16.6190   -2.9255 C.ar      1 <0>        -0.1195
     18 C12         4.1971   15.8646   -4.0811 C.ar      1 <0>        -0.1044
     19 C13         3.2345   14.8794   -4.1983 C.ar      1 <0>        -0.1200
     20 C14         2.3516   14.6487   -3.1599 C.ar      1 <0>        -0.1036
     21 N4          1.0017   12.4154   -1.2389 N.pl3     1 <0>        -0.8204
     22 C15         0.8245   10.0107    0.6646 C.2       1 <0>         0.5284
     23 O3         -0.1010   10.7621    0.8902 O.2       1 <0>        -0.5061
     24 C16         0.5843    8.5258    0.5727 C.3       1 <0>        -0.1511
     25 S1         -1.1759    8.1801    0.8429 S.3       1 <0>        -0.0324
     26 C17        -1.2920    6.4273    0.7058 C.ar      1 <0>        -0.1143
     27 C18        -2.5213    5.7981    0.8597 C.ar      1 <0>        -0.0765
     28 C19        -2.6119    4.4249    0.7518 C.ar      1 <0>        -0.1250
     29 C20        -1.4748    3.6724    0.4890 C.ar      1 <0>         0.1403
     30 C21        -0.2451    4.3003    0.3404 C.ar      1 <0>        -0.1005
     31 C22        -0.1544    5.6739    0.4433 C.ar      1 <0>        -0.1145
     32 N5         -1.5672    2.2783    0.3795 N.am      1 <0>        -0.6757
     33 C23        -0.7460    1.6120   -0.4560 C.2       1 <0>         0.5103
     34 O4          0.0064    2.2250   -1.1836 O.2       1 <0>        -0.5247
     35 C24        -0.7669    0.1055   -0.4907 C.3       1 <0>        -0.1745
     36 H2          5.4028    9.0335   -1.3313 H         1 <0>         0.0587
     37 H3          4.2534    7.6819   -1.4735 H         1 <0>         0.0582
     38 H4          4.5992    8.7085   -2.8859 H         1 <0>         0.0596
     39 H5          2.4107    9.2915   -1.8764 H         1 <0>         0.0620
     40 H6          3.5601   10.6430   -1.7342 H         1 <0>         0.0672
     41 H7          4.0892    9.9488    0.5867 H         1 <0>         0.0905
     42 H8          2.9397    8.5973    0.4445 H         1 <0>         0.0835
     43 H9          0.5230   14.7875   -1.2740 H         1 <0>         0.1009
     44 H10         1.2981   16.0805   -0.3277 H         1 <0>         0.1227
     45 H11         3.4501   16.9843   -0.9882 H         1 <0>         0.1336
     46 H12         5.0287   17.3890   -2.8341 H         1 <0>         0.1273
     47 H13         4.8867   16.0450   -4.8925 H         1 <0>         0.1259
     48 H14         3.1720   14.2902   -5.1013 H         1 <0>         0.1261
     49 H15         1.5993   13.8793   -3.2517 H         1 <0>         0.1161
     50 H16         0.7824   11.4775   -1.3535 H         1 <0>         0.4230
     51 H17         0.6716   13.0715   -1.8725 H         1 <0>         0.4057
     52 H18         1.1757    8.0144    1.3322 H         1 <0>         0.1212
     53 H19         0.8768    8.1709   -0.4155 H         1 <0>         0.1184
     54 H20        -3.4057    6.3833    1.0641 H         1 <0>         0.1337
     55 H21        -3.5673    3.9358    0.8714 H         1 <0>         0.1323
     56 H22         0.6396    3.7143    0.1401 H         1 <0>         0.1381
     57 H23         0.8013    6.1625    0.3236 H         1 <0>         0.1243
     58 H24        -2.2223    1.7929    0.9051 H         1 <0>         0.4131
     59 H25        -0.0442   -0.2511   -1.2246 H         1 <0>         0.0976
     60 H26        -0.5077   -0.2842    0.4937 H         1 <0>         0.0932
     61 H27        -1.7641   -0.2377   -0.7663 H         1 <0>         0.0922
@<TRIPOS>BOND
     1    1    2 1
     2    1   36 1
     3    1   37 1
     4    1   38 1
     5    2    3 1
     6    2   39 1
     7    2   40 1
     8    3    4 1
     9    3   41 1
    10    3   42 1
    11    4    5 1
    12    4   22 am
    13    5   12 1
    14    5    6 2
    15    6    7 1
    16    6   21 1
    17    7    8 am
    18    7   14 1
    19    8    9 2
    20    8   10 am
    21   10   11 1
    22   10   12 am
    23   12   13 2
    24   14   15 1
    25   14   43 1
    26   14   44 1
    27   15   20 ar
    28   15   16 ar
    29   16   17 ar
    30   16   45 1
    31   17   18 ar
    32   17   46 1
    33   18   19 ar
    34   18   47 1
    35   19   20 ar
    36   19   48 1
    37   20   49 1
    38   21   50 1
    39   21   51 1
    40   22   23 2
    41   22   24 1
    42   24   25 1
    43   24   52 1
    44   24   53 1
    45   25   26 1
    46   26   31 ar
    47   26   27 ar
    48   27   28 ar
    49   27   54 1
    50   28   29 ar
    51   28   55 1
    52   29   30 ar
    53   29   32 1
    54   30   31 ar
    55   30   56 1
    56   31   57 1
    57   32   33 am
    58   32   58 1
    59   33   34 2
    60   33   35 1
    61   35   59 1
    62   35   60 1
    63   35   61 1
@<TRIPOS>MOLECULE
ZINC21078216
   56    59     0     0     0
SMALL
USER_CHARGES
3-[[5-[(N'E)-N'-[(4-hydroxyphenyl)methylene]hydrazino]-4H-1,2,4-triazol-3-yl]sulfanyl]-N-[3-(2-oxopyrrolidin-1-yl)phenyl]propanamide
@<TRIPOS>ATOM
      1 C1        -14.2094    8.7125    0.9533 C.ar      1 <0>        -0.0716
      2 C2        -13.7191    7.4265    0.8296 C.ar      1 <0>        -0.1475
      3 C3        -14.4810    6.4485    0.2030 C.ar      1 <0>         0.1813
      4 C4        -15.7400    6.7615   -0.2895 C.ar      1 <0>        -0.1860
      5 C5        -16.2315    8.0522   -0.1590 C.ar      1 <0>         0.1825
      6 C6        -15.4623    9.0272    0.4641 C.ar      1 <0>        -0.1746
      7 N1        -17.5007    8.3717   -0.6540 N.am      1 <0>        -0.5600
      8 C7        -18.0642    9.7266   -0.6754 C.3       1 <0>         0.0889
      9 C8        -19.5835    9.5380   -0.8814 C.3       1 <0>        -0.1328
     10 C9        -19.6369    8.1682   -1.5970 C.3       1 <0>        -0.1525
     11 C10       -18.3582    7.4779   -1.1761 C.2       1 <0>         0.5194
     12 O1        -18.1397    6.2904   -1.2906 O.2       1 <0>        -0.5101
     13 N2        -13.9818    5.1477    0.0738 N.am      1 <0>        -0.6848
     14 C11       -12.6601    4.9470   -0.0975 C.2       1 <0>         0.5235
     15 O2        -11.9157    5.8946   -0.2356 O.2       1 <0>        -0.5163
     16 C12       -12.1072    3.5453   -0.1173 C.3       1 <0>        -0.1261
     17 C13       -10.5922    3.5975   -0.3247 C.3       1 <0>        -0.1046
     18 S1         -9.9267    1.9102   -0.3485 S.3       1 <0>         0.0332
     19 C14        -8.1965    2.1378   -0.5919 C.2       1 <0>         0.2244
     20 N3         -7.2608    1.1465   -0.6798 N.2       1 <0>        -0.5547
     21 C15        -6.0401    1.7331   -0.8678 C.2       1 <0>         0.5405
     22 N4         -6.2141    3.0323   -0.8901 N.pl3     1 <0>        -0.4759
     23 N5         -7.5809    3.2889   -0.7202 N.2       1 <0>        -0.3192
     24 N6         -4.8292    1.0700   -1.0050 N.pl3     1 <0>        -0.5592
     25 N7         -3.6483    1.7999   -1.1933 N.2       1 <0>        -0.2598
     26 C16        -2.5148    1.1792   -1.3217 C.2       1 <0>         0.1317
     27 C17        -1.2723    1.9472   -1.5199 C.ar      1 <0>        -0.1051
     28 C18        -0.0514    1.2815   -1.6583 C.ar      1 <0>        -0.0417
     29 C19         1.1069    2.0035   -1.8496 C.ar      1 <0>        -0.1668
     30 C20         1.0627    3.3907   -1.8996 C.ar      1 <0>         0.1787
     31 C21        -0.1475    4.0569   -1.7572 C.ar      1 <0>        -0.2210
     32 C22        -1.3108    3.3434   -1.5647 C.ar      1 <0>        -0.0374
     33 O3          2.2072    4.0983   -2.0888 O.3       1 <0>        -0.5076
     34 H1        -13.6136    9.4720    1.4375 H         1 <0>         0.1304
     35 H2        -12.7410    7.1824    1.2171 H         1 <0>         0.1346
     36 H3        -16.3358    6.0019   -0.7738 H         1 <0>         0.1589
     37 H4        -15.8445   10.0321    0.5663 H         1 <0>         0.1259
     38 H5        -17.8473   10.2290    0.2788 H         1 <0>         0.0882
     39 H6        -17.6145   10.2978   -1.5010 H         1 <0>         0.0821
     40 H7        -20.0885    9.5359    0.0958 H         1 <0>         0.0871
     41 H8        -19.9755   10.3626   -1.4950 H         1 <0>         0.0978
     42 H9        -20.5304    7.6173   -1.2681 H         1 <0>         0.1105
     43 H10       -19.6823    8.3244   -2.6849 H         1 <0>         0.1125
     44 H11       -14.6681    4.2889    0.1120 H         1 <0>         0.4390
     45 H12       -12.3295    3.0499    0.8394 H         1 <0>         0.1127
     46 H13       -12.5706    2.9799   -0.9393 H         1 <0>         0.1116
     47 H14       -10.3700    4.0929   -1.2814 H         1 <0>         0.1025
     48 H15       -10.1288    4.1629    0.4973 H         1 <0>         0.1026
     49 H16        -4.7963   -0.0288   -0.9659 H         1 <0>         0.4369
     50 H17        -2.4819    0.0804   -1.2826 H         1 <0>         0.1302
     51 H18        -0.0161    0.2027   -1.6199 H         1 <0>         0.1371
     52 H19         2.0503    1.4897   -1.9611 H         1 <0>         0.1353
     53 H20        -0.1770    5.1357   -1.7972 H         1 <0>         0.1315
     54 H21        -2.2515    3.8623   -1.4541 H         1 <0>         0.1316
     55 H22         2.1743    5.1971   -2.1287 H         1 <0>         0.4385
     56 H23        -5.3510    3.7005   -1.0262 H         1 <0>         0.4737
@<TRIPOS>BOND
     1    1    6 ar
     2    1    2 ar
     3    1   34 1
     4    2    3 ar
     5    2   35 1
     6    3    4 ar
     7    3   13 1
     8    4    5 ar
     9    4   36 1
    10    5    6 ar
    11    5    7 1
    12    6   37 1
    13    7   11 am
    14    7    8 1
    15    8    9 1
    16    8   38 1
    17    8   39 1
    18    9   10 1
    19    9   40 1
    20    9   41 1
    21   10   11 1
    22   10   42 1
    23   10   43 1
    24   11   12 2
    25   13   14 am
    26   13   44 1
    27   14   15 2
    28   14   16 1
    29   16   17 1
    30   16   45 1
    31   16   46 1
    32   17   18 1
    33   17   47 1
    34   17   48 1
    35   18   19 1
    36   19   23 2
    37   19   20 1
    38   20   21 2
    39   21   22 1
    40   21   24 1
    41   22   23 1
    42   22   56 1
    43   24   25 1
    44   24   49 1
    45   25   26 2
    46   26   27 1
    47   26   50 1
    48   27   32 ar
    49   27   28 ar
    50   28   29 ar
    51   28   51 1
    52   29   30 ar
    53   29   52 1
    54   30   31 ar
    55   30   33 1
    56   31   32 ar
    57   31   53 1
    58   32   54 1
    59   33   55 1
@<TRIPOS>MOLECULE
ZINC36603504
   64    66     0     0     0
SMALL
USER_CHARGES

@<TRIPOS>ATOM
      1 C1          4.7024   -2.3940    0.9192 C.3       1 <0>        -0.1373
      2 C2          3.2036   -2.5695    0.6669 C.3       1 <0>        -0.1487
      3 C3          2.4605   -2.4830    1.9751 C.2       1 <0>         0.5139
      4 O1          3.0612   -2.2317    2.9983 O.2       1 <0>        -0.5070
      5 N1          1.1283   -2.6848    2.0080 N.am      1 <0>        -0.5979
      6 C4          0.3947   -2.5285    3.2664 C.3       1 <0>         0.1957
      7 C5          0.3537   -1.0708    3.6462 C.2       1 <0>        -0.0507
      8 C6         -0.6738   -0.2301    3.4301 C.2       1 <0>        -0.1327
      9 C7         -0.2868    1.0299    3.9415 C.2       1 <0>        -0.2238
     10 C8          0.9542    0.8838    4.4396 C.2       1 <0>        -0.0166
     11 O2          1.3348   -0.3920    4.2632 O.3       1 <0>        -0.1618
     12 C9          1.7758    1.9667    5.0903 C.3       1 <0>        -0.0746
     13 C10         0.4140   -3.0606    0.7854 C.3       1 <0>         0.1906
     14 H1          0.7419   -4.0486    0.4621 H         1 <0>         0.1110
     15 C11         0.7078   -2.0545   -0.2974 C.ar      1 <0>        -0.1803
     16 C12         0.5908   -0.6981   -0.0338 C.ar      1 <0>         0.1738
     17 C13         0.8612    0.2277   -1.0303 C.ar      1 <0>        -0.1859
     18 C14         1.2489   -0.2029   -2.2901 C.ar      1 <0>         0.1579
     19 C15         1.3668   -1.5593   -2.5535 C.ar      1 <0>        -0.1853
     20 C16         1.1006   -2.4850   -1.5558 C.ar      1 <0>         0.1539
     21 O3          1.2207   -3.8140   -1.8125 O.3       1 <0>        -0.4883
     22 O4          1.5130    0.7044   -3.2668 O.3       1 <0>        -0.4927
     23 O5          0.2108   -0.2761    1.2008 O.3       1 <0>        -0.4525
     24 C17        -1.0680   -3.0873    1.0576 C.2       1 <0>         0.5117
     25 O6         -1.5909   -2.1724    1.6579 O.2       1 <0>        -0.4708
     26 N2         -1.8123   -4.1280    0.6339 N.am      1 <0>        -0.7043
     27 C18        -3.2530   -4.1540    0.8985 C.3       1 <0>        -0.3617
     28 S1         -4.1433   -3.4917   -0.5365 S.o2      1 <0>         2.4688
     29 O7         -5.5457   -3.5687   -0.3206 O.2       1 <0>        -0.9301
     30 O8         -3.5424   -2.2785   -0.9682 O.2       1 <0>        -0.9131
     31 C19        -3.8248   -4.6384   -1.8358 C.ar      1 <0>        -0.6654
     32 C20        -2.7255   -4.4659   -2.6559 C.ar      1 <0>        -0.0219
     33 C21        -2.4756   -5.3655   -3.6752 C.ar      1 <0>        -0.1412
     34 C22        -3.3248   -6.4380   -3.8742 C.ar      1 <0>        -0.0253
     35 C23        -4.4237   -6.6110   -3.0535 C.ar      1 <0>        -0.1386
     36 C24        -4.6712   -5.7137   -2.0315 C.ar      1 <0>        -0.0190
     37 C25        -3.0530   -7.4182   -4.9861 C.3       1 <0>        -0.1281
     38 H2          5.0526   -3.1796    1.5886 H         1 <0>         0.0615
     39 H3          5.2399   -2.4565   -0.0270 H         1 <0>         0.0619
     40 H4          4.8825   -1.4207    1.3757 H         1 <0>         0.0605
     41 H5          2.8534   -1.7838   -0.0026 H         1 <0>         0.0946
     42 H6          3.0235   -3.5428    0.2104 H         1 <0>         0.0969
     43 H7         -0.6224   -2.9004    3.1426 H         1 <0>         0.1192
     44 H8          0.8955   -3.0947    4.0517 H         1 <0>         0.0856
     45 H9         -1.6139   -0.4711    2.9562 H         1 <0>         0.1606
     46 H10        -0.8745    1.9359    3.9335 H         1 <0>         0.1435
     47 H11         1.5774    1.9789    6.1620 H         1 <0>         0.0794
     48 H12         2.8345    1.7720    4.9189 H         1 <0>         0.0742
     49 H13         1.5098    2.9324    4.6605 H         1 <0>         0.0861
     50 H14         0.7694    1.2841   -0.8252 H         1 <0>         0.1410
     51 H15         1.6685   -1.8946   -3.5348 H         1 <0>         0.1431
     52 H16         0.4099   -4.2259   -2.1414 H         1 <0>         0.3920
     53 H17         2.4358    0.9919   -3.2975 H         1 <0>         0.3979
     54 H18         0.9483   -0.0402    1.7801 H         1 <0>         0.3825
     55 H19        -1.3941   -4.8598    0.1538 H         1 <0>         0.4132
     56 H20        -3.5704   -5.1806    1.0809 H         1 <0>         0.1483
     57 H21        -3.4724   -3.5446    1.7752 H         1 <0>         0.1582
     58 H22        -2.0620   -3.6280   -2.5004 H         1 <0>         0.1366
     59 H23        -1.6171   -5.2304   -4.3163 H         1 <0>         0.1349
     60 H24        -5.0874   -7.4487   -3.2092 H         1 <0>         0.1346
     61 H25        -5.5276   -5.8510   -1.3880 H         1 <0>         0.1423
     62 H26        -2.4193   -8.2232   -4.6139 H         1 <0>         0.0815
     63 H27        -3.9955   -7.8332   -5.3431 H         1 <0>         0.0741
     64 H28        -2.5475   -6.9072   -5.8054 H         1 <0>         0.0743
@<TRIPOS>BOND
     1    1    2 1
     2    1   38 1
     3    1   39 1
     4    1   40 1
     5    2    3 1
     6    2   41 1
     7    2   42 1
     8    3    4 2
     9    3    5 am
    10    5    6 1
    11    5   13 1
    12    6    7 1
    13    6   43 1
    14    6   44 1
    15    7   11 1
    16    7    8 2
    17    8    9 1
    18    8   45 1
    19    9   10 2
    20    9   46 1
    21   10   11 1
    22   10   12 1
    23   12   47 1
    24   12   48 1
    25   12   49 1
    26   13   14 1
    27   13   15 1
    28   13   24 1
    29   15   20 ar
    30   15   16 ar
    31   16   17 ar
    32   16   23 1
    33   17   18 ar
    34   17   50 1
    35   18   19 ar
    36   18   22 1
    37   19   20 ar
    38   19   51 1
    39   20   21 1
    40   21   52 1
    41   22   53 1
    42   23   54 1
    43   24   25 2
    44   24   26 am
    45   26   27 1
    46   26   55 1
    47   27   28 1
    48   27   56 1
    49   27   57 1
    50   28   29 2
    51   28   30 2
    52   28   31 1
    53   31   36 ar
    54   31   32 ar
    55   32   33 ar
    56   32   58 1
    57   33   34 ar
    58   33   59 1
    59   34   35 ar
    60   34   37 1
    61   35   36 ar
    62   35   60 1
    63   36   61 1
    64   37   62 1
    65   37   63 1
    66   37   64 1
@<TRIPOS>MOLECULE
ZINC59004885
   57    59     0     0     0
SMALL
USER_CHARGES

@<TRIPOS>ATOM
      1 C1          0.0370    1.2876    0.0013 C.2       1 <0>        -0.1969
      2 C2          0.0548   -0.0222   -0.0094 C.2       1 <0>        -0.1405
      3 C3          1.3698   -0.7577   -0.0378 C.3       1 <0>        -0.0486
      4 C4          1.4303   -1.7234    1.1175 C.ar      1 <0>        -0.1105
      5 C5          2.0371   -1.3464    2.3014 C.ar      1 <0>        -0.0828
      6 C6          2.0980   -2.2263    3.3679 C.ar      1 <0>        -0.1314
      7 C7          1.5529   -3.4890    3.2597 C.ar      1 <0>        -0.0790
      8 C8          0.9370   -3.8815    2.0697 C.ar      1 <0>        -0.0823
      9 C9          0.8731   -2.9850    0.9939 C.ar      1 <0>         0.1523
     10 O1          0.2716   -3.3540   -0.1667 O.3       1 <0>        -0.4660
     11 C10         0.3525   -5.2289    1.9471 C.2       1 <0>         0.0979
     12 N1         -0.2193   -5.5902    0.8389 N.2       1 <0>        -0.1751
     13 N2         -0.7749   -6.8710    0.7224 N.pl3     1 <0>        -0.5531
     14 C11        -1.3838   -7.2557   -0.4578 C.2       1 <0>         0.5619
     15 N3         -1.5028   -6.5198   -1.5431 N.2       1 <0>        -0.5120
     16 C12        -2.1465   -7.2131   -2.4883 C.2       1 <0>         0.2150
     17 N4         -2.4458   -8.4002   -2.0168 N.2       1 <0>        -0.3239
     18 N5         -1.9558   -8.4540   -0.7020 N.pl3     1 <0>        -0.5049
     19 S1         -2.5307   -6.6270   -4.1049 S.3       1 <0>         0.1187
     20 C13        -3.3932   -8.0201   -4.8833 C.3       1 <0>        -0.1643
     21 C14        -3.7830   -7.6468   -6.2903 C.2       1 <0>         0.5402
     22 O2         -3.5062   -6.5488   -6.7252 O.2       1 <0>        -0.4981
     23 N6         -4.4392   -8.5328   -7.0654 N.am      1 <0>        -0.6627
     24 C15        -4.8843   -8.1546   -8.3393 C.ar      1 <0>         0.1633
     25 C16        -4.1383   -7.2692   -9.1020 C.ar      1 <0>        -0.1020
     26 C17        -4.5791   -6.8974  -10.3585 C.ar      1 <0>        -0.1035
     27 C18        -5.7638   -7.4060  -10.8590 C.ar      1 <0>        -0.1117
     28 C19        -6.5142   -8.2891  -10.1062 C.ar      1 <0>        -0.1167
     29 C20        -6.0765   -8.6725   -8.8462 C.ar      1 <0>        -0.1101
     30 S2         -7.0275   -9.8035   -7.8864 S.3       1 <0>        -0.1171
     31 C21        -8.4522  -10.1853   -8.9424 C.3       1 <0>        -0.0741
     32 C22        -9.3588  -11.1563   -8.2310 C.2       1 <0>        -0.1521
     33 C23       -10.5677  -10.7900   -7.8840 C.2       1 <0>        -0.1562
     34 H1          0.9647    1.8404   -0.0101 H         1 <0>         0.0953
     35 H2         -0.9055    1.8148    0.0172 H         1 <0>         0.0977
     36 H3         -0.8730   -0.5750    0.0020 H         1 <0>         0.1118
     37 H4          1.4589   -1.3066   -0.9753 H         1 <0>         0.0854
     38 H5          2.1881   -0.0422    0.0435 H         1 <0>         0.0759
     39 H6          2.4663   -0.3597    2.3943 H         1 <0>         0.1280
     40 H7          2.5746   -1.9233    4.2885 H         1 <0>         0.1302
     41 H8          1.6028   -4.1729    4.0941 H         1 <0>         0.1308
     42 H9          0.8678   -3.7717   -0.8033 H         1 <0>         0.3917
     43 H10         0.3999   -5.9158    2.7792 H         1 <0>         0.1213
     44 H11        -0.7323   -7.4879    1.4697 H         1 <0>         0.3974
     45 H12        -2.7342   -8.8880   -4.9070 H         1 <0>         0.1263
     46 H13        -4.2886   -8.2595   -4.3096 H         1 <0>         0.1271
     47 H14        -4.6033   -9.4323   -6.7415 H         1 <0>         0.4148
     48 H15        -3.2128   -6.8696   -8.7144 H         1 <0>         0.1474
     49 H16        -3.9967   -6.2072  -10.9509 H         1 <0>         0.1314
     50 H17        -6.1036   -7.1119  -11.8411 H         1 <0>         0.1285
     51 H18        -7.4392   -8.6839  -10.4999 H         1 <0>         0.1264
     52 H19        -9.0003   -9.2682   -9.1587 H         1 <0>         0.0928
     53 H20        -8.1045  -10.6293   -9.8751 H         1 <0>         0.0977
     54 H21        -9.0119  -12.1543   -8.0072 H         1 <0>         0.1207
     55 H22       -10.9147   -9.7920   -8.1077 H         1 <0>         0.1010
     56 H23       -11.2175  -11.4859   -7.3742 H         1 <0>         0.1082
     57 H24        -2.0177   -9.2036   -0.0894 H         1 <0>         0.4382
@<TRIPOS>BOND
     1    1    2 2
     2    1   34 1
     3    1   35 1
     4    2    3 1
     5    2   36 1
     6    3    4 1
     7    3   37 1
     8    3   38 1
     9    4    9 ar
    10    4    5 ar
    11    5    6 ar
    12    5   39 1
    13    6    7 ar
    14    6   40 1
    15    7    8 ar
    16    7   41 1
    17    8    9 ar
    18    8   11 1
    19    9   10 1
    20   10   42 1
    21   11   12 2
    22   11   43 1
    23   12   13 1
    24   13   14 1
    25   13   44 1
    26   14   18 1
    27   14   15 2
    28   15   16 1
    29   16   17 2
    30   16   19 1
    31   17   18 1
    32   18   57 1
    33   19   20 1
    34   20   21 1
    35   20   45 1
    36   20   46 1
    37   21   22 2
    38   21   23 am
    39   23   24 1
    40   23   47 1
    41   24   29 ar
    42   24   25 ar
    43   25   26 ar
    44   25   48 1
    45   26   27 ar
    46   26   49 1
    47   27   28 ar
    48   27   50 1
    49   28   29 ar
    50   28   51 1
    51   29   30 1
    52   30   31 1
    53   31   32 1
    54   31   52 1
    55   31   53 1
    56   32   33 2
    57   32   54 1
    58   33   55 1
    59   33   56 1
@<TRIPOS>MOLECULE
ZINC64684072
   55    58     0     0     0
SMALL
USER_CHARGES

@<TRIPOS>ATOM
      1 C1         -0.0184    1.5028    0.0103 C.3       1 <0>        -0.1098
      2 C2          0.0021   -0.0041    0.0020 C.ar      1 <0>        -0.1316
      3 C3          0.0057   -0.6873   -1.2002 C.ar      1 <0>        -0.0741
      4 C4          0.0244   -2.0682   -1.2115 C.ar      1 <0>        -0.1745
      5 C5          0.0396   -2.7708   -0.0132 C.ar      1 <0>         0.1987
      6 C6          0.0359   -2.0813    1.1927 C.ar      1 <0>        -0.1827
      7 C7          0.0229   -0.7003    1.1966 C.ar      1 <0>        -0.0726
      8 N1          0.0581   -4.1674   -0.0209 N.pl3     1 <0>        -0.7291
      9 C8          0.0741   -4.9067    1.2438 C.3       1 <0>         0.4048
     10 H1          0.7817   -4.4679    1.9472 H         1 <0>         0.1310
     11 N2          0.3536   -6.3438    1.0242 N.pl3     1 <0>        -0.6197
     12 N3         -0.6529   -7.2024    1.4059 N.2       1 <0>        -0.2592
     13 C9         -1.7735   -6.8012    1.9228 C.2       1 <0>         0.0708
     14 S1         -1.6115   -5.0221    1.9735 S.3       1 <0>        -0.1737
     15 S2         -3.1376   -7.7825    2.4528 S.3       1 <0>         0.1254
     16 C10        -2.6134   -9.4848    2.1093 C.3       1 <0>        -0.1583
     17 C11        -3.7042  -10.4392    2.5217 C.2       1 <0>         0.5314
     18 O1         -4.7340  -10.0130    3.0001 O.2       1 <0>        -0.5093
     19 N4         -3.5355  -11.7664    2.3588 N.am      1 <0>        -0.7065
     20 C12        -4.5960  -12.6943    2.7596 C.3       1 <0>         0.0845
     21 H2         -5.0970  -12.3113    3.6487 H         1 <0>         0.0979
     22 C13        -3.9862  -14.0633    3.0678 C.3       1 <0>        -0.0897
     23 C14        -3.0802  -13.9513    4.2668 C.2       1 <0>         0.0978
     24 C15        -3.4001  -14.2118    5.5549 C.ar      1 <0>        -0.1914
     25 C16        -4.6401  -14.6591    6.2006 C.ar      1 <0>         0.0127
     26 C17        -4.6547  -14.8359    7.5413 C.ar      1 <0>        -0.1710
     27 C18        -3.5181  -14.6028    8.3279 C.ar      1 <0>         0.0550
     28 C19        -2.3430  -14.1906    7.8071 C.ar      1 <0>        -0.2168
     29 C20        -2.2138  -13.9731    6.4076 C.ar      1 <0>         0.3246
     30 N5         -1.2000  -13.5803    5.6752 N.pl3     1 <0>        -0.5980
     31 C21        -1.6274  -13.5312    4.2726 C.3       1 <0>         0.0583
     32 C22        -5.5948  -12.8299    1.6393 C.2       1 <0>         0.4923
     33 O2         -5.2336  -12.7024    0.4818 O.co2     1 <0>        -0.6680
     34 O3         -6.7640  -13.0670    1.8904 O.co2     1 <0>        -0.6699
     35 H3          1.0042    1.8801    0.0026 H         1 <0>         0.0661
     36 H4         -0.5455    1.8639   -0.8728 H         1 <0>         0.0640
     37 H5         -0.5286    1.8543    0.9071 H         1 <0>         0.0640
     38 H6         -0.0065   -0.1405   -2.1315 H         1 <0>         0.1242
     39 H7          0.0269   -2.6012   -2.1507 H         1 <0>         0.1219
     40 H8          0.0473   -2.6245    2.1261 H         1 <0>         0.1175
     41 H9          0.0244   -0.1635    2.1338 H         1 <0>         0.1237
     42 H10         0.0603   -4.6478   -0.8636 H         1 <0>         0.4034
     43 H11         1.1863   -6.6582    0.6386 H         1 <0>         0.4367
     44 H12        -2.4169   -9.5963    1.0430 H         1 <0>         0.1268
     45 H13        -1.7057   -9.7057    2.6710 H         1 <0>         0.1157
     46 H14        -2.7119  -12.1073    1.9761 H         1 <0>         0.3941
     47 H15        -4.7828  -14.7765    3.2797 H         1 <0>         0.1273
     48 H16        -3.4105  -14.4064    2.2081 H         1 <0>         0.1176
     49 H17        -5.5277  -14.8439    5.6137 H         1 <0>         0.1643
     50 H18        -5.5659  -15.1650    8.0185 H         1 <0>         0.1547
     51 H19        -3.5855  -14.7591    9.3944 H         1 <0>         0.1554
     52 H20        -1.4963  -14.0248    8.4568 H         1 <0>         0.1547
     53 H21        -1.0344  -14.2214    3.6725 H         1 <0>         0.1728
     54 H22        -1.5282  -12.5165    3.8871 H         1 <0>         0.1648
     55 H23        -0.3142  -13.3624    6.0050 H         1 <0>         0.4507
@<TRIPOS>BOND
     1    1    2 1
     2    1   35 1
     3    1   36 1
     4    1   37 1
     5    2    7 ar
     6    2    3 ar
     7    3    4 ar
     8    3   38 1
     9    4    5 ar
    10    4   39 1
    11    5    6 ar
    12    5    8 1
    13    6    7 ar
    14    6   40 1
    15    7   41 1
    16    8    9 1
    17    8   42 1
    18    9   10 1
    19    9   14 1
    20    9   11 1
    21   11   12 1
    22   11   43 1
    23   12   13 2
    24   13   14 1
    25   13   15 1
    26   15   16 1
    27   16   17 1
    28   16   44 1
    29   16   45 1
    30   17   18 2
    31   17   19 am
    32   19   20 1
    33   19   46 1
    34   20   21 1
    35   20   22 1
    36   20   32 1
    37   22   23 1
    38   22   47 1
    39   22   48 1
    40   23   31 1
    41   23   24 2
    42   24   29 ar
    43   24   25 ar
    44   25   26 ar
    45   25   49 1
    46   26   27 ar
    47   26   50 1
    48   27   28 ar
    49   27   51 1
    50   28   29 ar
    51   28   52 1
    52   29   30 2
    53   30   31 1
    54   30   55 1
    55   31   53 1
    56   31   54 1
    57   32   33 2
    58   32   34 1
@<TRIPOS>MOLECULE
ZINC09095159
   75    79     0     0     0
SMALL
USER_CHARGES
(2S)-N-(2-diethylaminoethyl)-2-[(3R)-1-oxo-3-[2-(p-tolyl)-1H-indol-3-yl]isoindolin-2-yl]propanamide
@<TRIPOS>ATOM
      1 C1         -4.1352   10.6423   -4.3373 C.3       1 <0>        -0.1854
      2 C2         -4.5711   11.7704   -3.4002 C.3       1 <0>        -0.0164
      3 C3         -6.8542   11.6570   -4.1986 C.3       1 <0>        -0.0108
      4 C4         -6.9327   13.1075   -4.6788 C.3       1 <0>        -0.1890
      5 C5         -6.1622   10.3040   -2.3135 C.3       1 <0>        -0.0230
      6 C6         -5.4289   10.3564   -0.9717 C.3       1 <0>         0.0996
      7 N1         -5.6130    9.0866   -0.2647 N.am      1 <0>        -0.7344
      8 C7         -5.0525    8.9026    0.9471 C.2       1 <0>         0.5078
      9 O1         -4.3957    9.7882    1.4522 O.2       1 <0>        -0.4818
     10 C8         -5.2420    7.5964    1.6744 C.3       1 <0>         0.1593
     11 H1         -4.8385    6.7829    1.0714 H         1 <0>         0.1165
     12 C9         -6.7339    7.3597    1.9174 C.3       1 <0>        -0.1683
     13 N2         -4.5398    7.6465    2.9592 N.am      1 <0>        -0.5947
     14 C10        -3.4598    6.7461    3.3787 C.3       1 <0>         0.2495
     15 H2         -3.8168    5.7164    3.4009 H         1 <0>         0.1098
     16 C11        -3.0583    7.1855    4.7645 C.ar      1 <0>        -0.0677
     17 C12        -2.1165    6.7345    5.6603 C.ar      1 <0>        -0.0936
     18 C13        -1.9775    7.3570    6.8894 C.ar      1 <0>        -0.0834
     19 C14        -2.7823    8.4332    7.2193 C.ar      1 <0>        -0.1229
     20 C15        -3.7294    8.8936    6.3283 C.ar      1 <0>        -0.0451
     21 C16        -3.8762    8.2706    5.0874 C.ar      1 <0>        -0.1592
     22 C17        -4.7780    8.5256    3.9478 C.2       1 <0>         0.5755
     23 O2         -5.6163    9.4049    3.9085 O.2       1 <0>        -0.5104
     24 C18        -2.2893    6.8676    2.4373 C.2       1 <0>        -0.1716
     25 C19        -1.7299    8.1067    1.8999 C.ar      1 <0>        -0.0912
     26 C20        -2.0486    9.4593    2.0532 C.ar      1 <0>        -0.0332
     27 C21        -1.3190   10.4070    1.3934 C.ar      1 <0>        -0.1526
     28 C22        -0.2631   10.0380    0.5708 C.ar      1 <0>        -0.0936
     29 C23         0.0686    8.7111    0.4049 C.ar      1 <0>        -0.1413
     30 C24        -0.6597    7.7281    1.0672 C.ar      1 <0>         0.1029
     31 N3         -0.5749    6.3538    1.1039 N.pl3     1 <0>        -0.5853
     32 H3          0.0766    5.8220    0.6206 H         1 <0>         0.4176
     33 C25        -1.5526    5.8486    1.9296 C.2       1 <0>         0.1465
     34 C26        -1.7707    4.4139    2.2148 C.ar      1 <0>        -0.0519
     35 C27        -0.6864    3.5841    2.5032 C.ar      1 <0>        -0.0975
     36 C28        -0.8967    2.2467    2.7688 C.ar      1 <0>        -0.1138
     37 C29        -2.1791    1.7279    2.7501 C.ar      1 <0>        -0.0682
     38 C30        -3.2578    2.5441    2.4597 C.ar      1 <0>        -0.1151
     39 C31        -3.0616    3.8843    2.1971 C.ar      1 <0>        -0.0956
     40 C32        -2.4014    0.2660    3.0412 C.3       1 <0>        -0.1228
     41 H4         -3.0851   10.7727   -4.5990 H         1 <0>         0.1069
     42 H5         -4.2686    9.6828   -3.8375 H         1 <0>         0.0788
     43 H6         -4.7412   10.6676   -5.2429 H         1 <0>         0.0811
     44 H7         -4.4596   12.7283   -3.9082 H         1 <0>         0.1327
     45 H8         -3.9497   11.7596   -2.5047 H         1 <0>         0.1310
     46 H9         -6.4509   11.0318   -4.9953 H         1 <0>         0.1334
     47 H10        -7.8518   11.3078   -3.9324 H         1 <0>         0.1298
     48 H11        -7.3385   13.7322   -3.8830 H         1 <0>         0.0814
     49 H12        -5.9347   13.4576   -4.9424 H         1 <0>         0.0801
     50 H13        -7.5810   13.1662   -5.5531 H         1 <0>         0.1072
     51 H14        -5.7588    9.4906   -2.9166 H         1 <0>         0.1388
     52 H15        -7.2251   10.1354   -2.1404 H         1 <0>         0.1363
     53 H16        -5.8323   11.1699   -0.3687 H         1 <0>         0.0883
     54 H17        -4.3660   10.5250   -1.1449 H         1 <0>         0.0879
     55 H18        -6.1384    8.3783   -0.6687 H         1 <0>         0.4044
     56 H19        -7.2563    7.3223    0.9615 H         1 <0>         0.0724
     57 H20        -6.8709    6.4149    2.4435 H         1 <0>         0.0789
     58 H21        -7.1373    8.1731    2.5205 H         1 <0>         0.0816
     59 H22        -1.4867    5.8950    5.4054 H         1 <0>         0.1282
     60 H23        -1.2386    7.0017    7.5924 H         1 <0>         0.1347
     61 H24        -2.6687    8.9149    8.1793 H         1 <0>         0.1353
     62 H25        -4.3555    9.7338    6.5898 H         1 <0>         0.1324
     63 H26        -2.8691    9.7537    2.6908 H         1 <0>         0.1351
     64 H27        -1.5657   11.4517    1.5122 H         1 <0>         0.1157
     65 H28         0.3041   10.7990    0.0556 H         1 <0>         0.1215
     66 H29         0.8923    8.4349   -0.2367 H         1 <0>         0.1182
     67 H30         0.3151    3.9880    2.5188 H         1 <0>         0.1234
     68 H31        -0.0584    1.6034    2.9921 H         1 <0>         0.1292
     69 H32        -4.2561    2.1322    2.4427 H         1 <0>         0.1297
     70 H33        -3.9049    4.5213    1.9746 H         1 <0>         0.1238
     71 H34        -2.5563    0.1281    4.1112 H         1 <0>         0.0769
     72 H35        -3.2802   -0.0829    2.4988 H         1 <0>         0.0702
     73 H36        -1.5284   -0.3044    2.7239 H         1 <0>         0.0704
     74 N4         -5.9848   11.5985   -3.0046 N.4       1 <0>        -0.3919
     75 H37        -6.2465   12.3571   -2.3641 H         1 <0>         0.4313
@<TRIPOS>BOND
     1    1    2 1
     2    1   41 1
     3    1   42 1
     4    1   43 1
     5    2   44 1
     6    2   45 1
     7    2   74 1
     8    3    4 1
     9    3   46 1
    10    3   47 1
    11    3   74 1
    12    4   48 1
    13    4   49 1
    14    4   50 1
    15    5    6 1
    16    5   51 1
    17    5   52 1
    18    5   74 1
    19    6    7 1
    20    6   53 1
    21    6   54 1
    22    7    8 am
    23    7   55 1
    24    8    9 2
    25    8   10 1
    26   10   11 1
    27   10   12 1
    28   10   13 1
    29   12   56 1
    30   12   57 1
    31   12   58 1
    32   13   22 am
    33   13   14 1
    34   14   15 1
    35   14   16 1
    36   14   24 1
    37   16   21 ar
    38   16   17 ar
    39   17   18 ar
    40   17   59 1
    41   18   19 ar
    42   18   60 1
    43   19   20 ar
    44   19   61 1
    45   20   21 ar
    46   20   62 1
    47   21   22 1
    48   22   23 2
    49   24   33 2
    50   24   25 1
    51   25   30 ar
    52   25   26 ar
    53   26   27 ar
    54   26   63 1
    55   27   28 ar
    56   27   64 1
    57   28   29 ar
    58   28   65 1
    59   29   30 ar
    60   29   66 1
    61   30   31 1
    62   31   32 1
    63   31   33 1
    64   33   34 1
    65   34   39 ar
    66   34   35 ar
    67   35   36 ar
    68   35   67 1
    69   36   37 ar
    70   36   68 1
    71   37   38 ar
    72   37   40 1
    73   38   39 ar
    74   38   69 1
    75   39   70 1
    76   40   71 1
    77   40   72 1
    78   40   73 1
    79   74   75 1
@<TRIPOS>MOLECULE
ZINC35148132
   62    66     0     0     0
SMALL
USER_CHARGES

@<TRIPOS>ATOM
      1 C1         -0.4257    1.1390    2.8985 C.3       1 <0>        -0.1550
      2 C2         -0.3451   -0.3358    2.4991 C.3       1 <0>         0.0635
      3 O1         -1.5993   -0.7511    1.9546 O.3       1 <0>        -0.3486
      4 C3         -1.6968   -2.0354    1.5501 C.2       1 <0>         0.5626
      5 O2         -0.7410   -2.7816    1.6576 O.2       1 <0>        -0.5033
      6 C4         -2.9086   -2.5137    1.0018 C.2       1 <0>        -0.3205
      7 C5         -3.1989   -3.7830    0.5426 C.2       1 <0>         0.3188
      8 C6         -4.5275   -4.0386    0.0179 C.ar      1 <0>        -0.1486
      9 C7         -5.0511   -5.2536   -0.5241 C.ar      1 <0>         0.1649
     10 C8         -6.3672   -5.2821   -0.9547 C.ar      1 <0>        -0.1129
     11 C9         -7.1595   -4.1369   -0.8528 C.ar      1 <0>         0.2997
     12 N1         -6.6529   -3.0082   -0.3736 N.ar      1 <0>        -0.4373
     13 C10        -5.4089   -2.9346    0.0470 C.ar      1 <0>         0.0771
     14 S1         -4.4319   -1.6255    0.7440 S.3       1 <0>         0.2867
     15 C11        -8.5841   -4.2098   -1.2541 C.ar      1 <0>        -0.1650
     16 C12        -9.3201   -3.0467   -1.4689 C.ar      1 <0>        -0.0318
     17 C13       -10.6403   -3.1339   -1.8583 C.ar      1 <0>        -0.2110
     18 C14       -11.2313   -4.3780   -2.0377 C.ar      1 <0>         0.1963
     19 C15       -10.5002   -5.5383   -1.8191 C.ar      1 <0>        -0.1517
     20 C16        -9.1827   -5.4580   -1.4199 C.ar      1 <0>         0.0268
     21 C17        -8.4003   -6.7126   -1.1367 C.3       1 <0>        -0.0953
     22 C18        -6.9410   -6.5419   -1.5472 C.3       1 <0>        -0.0775
     23 O3        -12.5296   -4.4601   -2.4281 O.3       1 <0>        -0.2991
     24 C19       -13.2239   -3.2284   -2.6351 C.3       1 <0>         0.0174
     25 C20        -4.2002   -6.4614   -0.6240 C.ar      1 <0>        -0.1291
     26 C21        -4.4303   -7.5499    0.2178 C.ar      1 <0>        -0.0774
     27 C22        -3.6372   -8.6744    0.1240 C.ar      1 <0>        -0.1732
     28 C23        -2.6099   -8.7265   -0.8068 C.ar      1 <0>         0.1399
     29 C24        -2.3755   -7.6430   -1.6504 C.ar      1 <0>         0.1092
     30 C25        -3.1706   -6.5152   -1.5639 C.ar      1 <0>        -0.1461
     31 O4         -1.3678   -7.6965   -2.5621 O.3       1 <0>        -0.2932
     32 C26        -1.1845   -6.5495   -3.3945 C.3       1 <0>         0.0210
     33 O5         -1.8305   -9.8365   -0.8955 O.3       1 <0>        -0.2936
     34 C27        -2.1260  -10.9100    0.0002 C.3       1 <0>         0.0189
     35 N2         -2.2438   -4.7891    0.5813 N.pl3     1 <0>        -0.8050
     36 H1          0.5310    1.4558    3.3138 H         1 <0>         0.0865
     37 H2         -0.6577    1.7411    2.0200 H         1 <0>         0.0685
     38 H3         -1.2079    1.2707    3.6461 H         1 <0>         0.0687
     39 H4          0.4370   -0.4675    1.7514 H         1 <0>         0.0738
     40 H5         -0.1131   -0.9379    3.3776 H         1 <0>         0.0739
     41 H6         -8.8586   -2.0801   -1.3307 H         1 <0>         0.1326
     42 H7        -11.2147   -2.2344   -2.0241 H         1 <0>         0.1503
     43 H8        -10.9636   -6.5034   -1.9613 H         1 <0>         0.1552
     44 H9         -8.4499   -6.9337   -0.0706 H         1 <0>         0.1010
     45 H10        -8.8359   -7.5411   -1.6952 H         1 <0>         0.1103
     46 H11        -6.8773   -6.4892   -2.6341 H         1 <0>         0.1049
     47 H12        -6.3663   -7.3987   -1.1954 H         1 <0>         0.1112
     48 H13       -13.2327   -2.6559   -1.7076 H         1 <0>         0.0658
     49 H14       -12.7202   -2.6535   -3.4122 H         1 <0>         0.0659
     50 H15       -14.2486   -3.4362   -2.9434 H         1 <0>         0.1147
     51 H16        -5.2295   -7.5118    0.9433 H         1 <0>         0.1410
     52 H17        -3.8161   -9.5160    0.7768 H         1 <0>         0.1535
     53 H18        -2.9924   -5.6759   -2.2198 H         1 <0>         0.1445
     54 H19        -2.0919   -6.3702   -3.9711 H         1 <0>         0.0585
     55 H20        -0.9713   -5.6798   -2.7729 H         1 <0>         0.0567
     56 H21        -0.3504   -6.7234   -4.0743 H         1 <0>         0.1116
     57 H22        -1.4315  -11.7315   -0.1756 H         1 <0>         0.1114
     58 H23        -2.0258  -10.5632    1.0286 H         1 <0>         0.0624
     59 H24        -3.1463  -11.2542   -0.1693 H         1 <0>         0.0630
     60 H25        -1.3059   -4.5638    0.6833 H         1 <0>         0.4292
     61 H26        -2.5142   -5.7176    0.5064 H         1 <0>         0.4109
     62 H27        -7.2136   -2.2177   -0.3328 H         1 <0>         0.4468
@<TRIPOS>BOND
     1    1    2 1
     2    1   36 1
     3    1   37 1
     4    1   38 1
     5    2    3 1
     6    2   39 1
     7    2   40 1
     8    3    4 1
     9    4    5 2
    10    4    6 1
    11    6   14 1
    12    6    7 2
    13    7    8 1
    14    7   35 1
    15    8   13 ar
    16    8    9 ar
    17    9   10 ar
    18    9   25 1
    19   10   22 1
    20   10   11 ar
    21   11   12 ar
    22   11   15 1
    23   12   13 ar
    24   12   62 1
    25   13   14 1
    26   15   20 ar
    27   15   16 ar
    28   16   17 ar
    29   16   41 1
    30   17   18 ar
    31   17   42 1
    32   18   19 ar
    33   18   23 1
    34   19   20 ar
    35   19   43 1
    36   20   21 1
    37   21   22 1
    38   21   44 1
    39   21   45 1
    40   22   46 1
    41   22   47 1
    42   23   24 1
    43   24   48 1
    44   24   49 1
    45   24   50 1
    46   25   30 ar
    47   25   26 ar
    48   26   27 ar
    49   26   51 1
    50   27   28 ar
    51   27   52 1
    52   28   29 ar
    53   28   33 1
    54   29   30 ar
    55   29   31 1
    56   30   53 1
    57   31   32 1
    58   32   54 1
    59   32   55 1
    60   32   56 1
    61   33   34 1
    62   34   57 1
    63   34   58 1
    64   34   59 1
    65   35   60 1
    66   35   61 1
@<TRIPOS>MOLECULE
ZINC36619932
   68    71     0     0     0
SMALL
USER_CHARGES

@<TRIPOS>ATOM
      1 C1         -1.9345    0.3022    3.2985 C.3       1 <0>        -0.1890
      2 C2         -2.9794    0.6726    2.2440 C.3       1 <0>        -0.0110
      3 N1         -2.7939   -0.1689    1.0543 N.4       1 <0>        -0.3827
      4 C3         -3.0584   -1.5707    1.4023 C.3       1 <0>        -0.0274
      5 C4         -2.7546   -2.4621    0.1936 C.3       1 <0>         0.1018
      6 N2         -3.5256   -1.9663   -0.9569 N.pl3     1 <0>        -0.6448
      7 C5         -3.4466   -0.5330   -1.2786 C.3       1 <0>         0.1000
      8 C6         -3.7177    0.2674   -0.0004 C.3       1 <0>        -0.0226
      9 C7         -4.3114   -2.8333   -1.7237 C.ar      1 <0>         0.1845
     10 C8         -5.1136   -2.3289   -2.7394 C.ar      1 <0>        -0.1692
     11 C9         -5.8888   -3.1845   -3.4959 C.ar      1 <0>        -0.0812
     12 C10        -5.8668   -4.5496   -3.2416 C.ar      1 <0>         0.1116
     13 C11        -5.0655   -5.0539   -2.2262 C.ar      1 <0>        -0.0647
     14 C12        -4.2851   -4.1989   -1.4733 C.ar      1 <0>        -0.1668
     15 C13        -5.0426   -6.5352   -1.9498 C.3       1 <0>        -0.1220
     16 N3         -6.6541   -5.4182   -4.0097 N.am      1 <0>        -0.6633
     17 C14        -7.7726   -4.9627   -4.6079 C.2       1 <0>         0.5408
     18 O1         -8.0601   -3.7862   -4.5410 O.2       1 <0>        -0.4944
     19 C15        -8.6661   -5.9151   -5.3600 C.3       1 <0>        -0.1264
     20 H1         -8.7392   -6.8544   -4.8117 H         1 <0>         0.1133
     21 C16        -8.0774   -6.1789   -6.7473 C.3       1 <0>        -0.1467
     22 S1        -10.3180   -5.1858   -5.5327 S.3       1 <0>        -0.0681
     23 C17       -11.2982   -6.4987   -6.3112 C.3       1 <0>        -0.0840
     24 C18       -12.7117   -6.0171   -6.5142 C.2       1 <0>         0.4174
     25 N4        -13.6243   -6.8476   -7.0810 N.am      1 <0>        -0.6309
     26 H2        -13.3535   -7.7400   -7.3476 H         1 <0>         0.4216
     27 C19       -14.8971   -6.4577   -7.2800 C.2       1 <0>         0.5589
     28 O2        -15.7043   -7.2158   -7.7895 O.2       1 <0>        -0.5139
     29 C20       -15.2884   -5.1375   -6.8831 C.2       1 <0>        -0.2387
     30 C21       -16.5825   -4.4899   -6.9891 C.2       1 <0>        -0.0627
     31 C22       -16.7232   -3.2302   -6.5463 C.2       1 <0>        -0.1599
     32 S2        -15.0956   -2.8197   -5.9452 S.3       1 <0>         0.1502
     33 C23       -14.2751   -4.3510   -6.3060 C.2       1 <0>         0.1009
     34 N5        -13.0386   -4.8101   -6.1369 N.2       1 <0>        -0.4653
     35 C24       -17.9601   -2.3694   -6.5557 C.3       1 <0>        -0.0697
     36 C25       -17.7547   -5.2225   -7.5894 C.3       1 <0>        -0.1067
     37 H3         -2.0721    0.9266    4.1813 H         1 <0>         0.1071
     38 H4         -2.0513   -0.7461    3.5732 H         1 <0>         0.0801
     39 H5         -0.9358    0.4624    2.8924 H         1 <0>         0.0809
     40 H6         -3.9781    0.5124    2.6502 H         1 <0>         0.1284
     41 H7         -2.8626    1.7209    1.9694 H         1 <0>         0.1315
     42 H8         -2.4236   -1.8635    2.2386 H         1 <0>         0.1411
     43 H9         -4.1054   -1.6840    1.6836 H         1 <0>         0.1323
     44 H10        -1.6894   -2.4203   -0.0338 H         1 <0>         0.0863
     45 H11        -3.0451   -3.4893    0.4139 H         1 <0>         0.1250
     46 H12        -2.4513   -0.2964   -1.6547 H         1 <0>         0.0871
     47 H13        -4.1945   -0.2848   -2.0317 H         1 <0>         0.1274
     48 H14        -4.7447    0.0984    0.3232 H         1 <0>         0.1325
     49 H15        -3.5687    1.3289   -0.1978 H         1 <0>         0.1404
     50 H16        -5.1310   -1.2672   -2.9370 H         1 <0>         0.1261
     51 H17        -6.5128   -2.7923   -4.2853 H         1 <0>         0.1596
     52 H18        -3.6581   -4.5918   -0.6866 H         1 <0>         0.1267
     53 H19        -4.2631   -7.0047   -2.5498 H         1 <0>         0.0778
     54 H20        -4.8387   -6.7044   -0.8925 H         1 <0>         0.0743
     55 H21        -6.0094   -6.9678   -2.2072 H         1 <0>         0.0679
     56 H22        -6.3938   -6.3471   -4.1108 H         1 <0>         0.4129
     57 H23        -8.0044   -5.2396   -7.2956 H         1 <0>         0.0805
     58 H24        -7.0848   -6.6172   -6.6435 H         1 <0>         0.0703
     59 H25        -8.7237   -6.8678   -7.2913 H         1 <0>         0.0736
     60 H26       -10.8601   -6.7561   -7.2755 H         1 <0>         0.1242
     61 H27       -11.3031   -7.3786   -5.6678 H         1 <0>         0.1228
     62 H28       -18.5126   -2.5172   -5.6279 H         1 <0>         0.0830
     63 H29       -17.6729   -1.3217   -6.6447 H         1 <0>         0.0773
     64 H30       -18.5893   -2.6468   -7.4014 H         1 <0>         0.0867
     65 H31       -18.2914   -5.7547   -6.8041 H         1 <0>         0.0732
     66 H32       -18.4244   -4.5071   -8.0666 H         1 <0>         0.0694
     67 H33       -17.3960   -5.9354   -8.3318 H         1 <0>         0.0825
     68 H34        -1.8441   -0.0800    0.7257 H         1 <0>         0.4220
@<TRIPOS>BOND
     1    1    2 1
     2    1   37 1
     3    1   38 1
     4    1   39 1
     5    2    3 1
     6    2   40 1
     7    2   41 1
     8    3    8 1
     9    3    4 1
    10    3   68 1
    11    4    5 1
    12    4   42 1
    13    4   43 1
    14    5    6 1
    15    5   44 1
    16    5   45 1
    17    6    7 1
    18    6    9 1
    19    7    8 1
    20    7   46 1
    21    7   47 1
    22    8   48 1
    23    8   49 1
    24    9   14 ar
    25    9   10 ar
    26   10   11 ar
    27   10   50 1
    28   11   12 ar
    29   11   51 1
    30   12   13 ar
    31   12   16 1
    32   13   14 ar
    33   13   15 1
    34   14   52 1
    35   15   53 1
    36   15   54 1
    37   15   55 1
    38   16   17 am
    39   16   56 1
    40   17   18 2
    41   17   19 1
    42   19   20 1
    43   19   21 1
    44   19   22 1
    45   21   57 1
    46   21   58 1
    47   21   59 1
    48   22   23 1
    49   23   24 1
    50   23   60 1
    51   23   61 1
    52   24   34 2
    53   24   25 1
    54   25   26 1
    55   25   27 am
    56   27   28 2
    57   27   29 1
    58   29   33 2
    59   29   30 1
    60   30   31 2
    61   30   36 1
    62   31   32 1
    63   31   35 1
    64   32   33 1
    65   33   34 1
    66   35   62 1
    67   35   63 1
    68   35   64 1
    69   36   65 1
    70   36   66 1
    71   36   67 1
@<TRIPOS>MOLECULE
ZINC39672930
   83    86     0     0     0
SMALL
USER_CHARGES

@<TRIPOS>ATOM
      1 C1          0.8476   -0.3960    1.2036 C.3       1 <0>        -0.1549
      2 C2          0.6457   -1.9088    1.0959 C.3       1 <0>        -0.1256
      3 C3         -0.6959   -2.1974    0.4193 C.3       1 <0>        -0.1207
      4 C4         -0.8977   -3.7102    0.3116 C.3       1 <0>        -0.1038
      5 C5         -2.2393   -3.9989   -0.3649 C.3       1 <0>        -0.1061
      6 H1         -3.0367   -3.4916    0.1782 H         1 <0>         0.0924
      7 C6         -2.2023   -3.4917   -1.8079 C.3       1 <0>        -0.1429
      8 C7         -2.4947   -5.4841   -0.3608 C.2       1 <0>         0.5464
      9 O1         -1.5626   -6.2597   -0.3848 O.2       1 <0>        -0.5281
     10 N1         -3.7589   -5.9504   -0.3306 N.am      1 <0>        -0.6249
     11 C8         -5.0167   -5.1708   -0.4095 C.3       1 <0>         0.1101
     12 C9         -5.9517   -6.0267   -1.2930 C.3       1 <0>        -0.1122
     13 H2         -5.8985   -5.6984   -2.3310 H         1 <0>         0.1101
     14 C10        -5.4152   -7.4615   -1.1571 C.3       1 <0>        -0.0702
     15 C11        -4.2051   -7.3596   -0.2173 C.3       1 <0>         0.1062
     16 C12        -4.9752   -7.9923   -2.5181 C.3       1 <0>        -0.1335
     17 C13        -4.4991   -9.4398   -2.3665 C.3       1 <0>        -0.0111
     18 N2         -5.5896  -10.2615   -1.8275 N.4       1 <0>        -0.5043
     19 C14        -5.9441   -9.8017   -0.4794 C.3       1 <0>        -0.0082
     20 C15        -6.4810   -8.3694   -0.5511 C.3       1 <0>        -0.1464
     21 C16        -7.3698   -5.9443   -0.7897 C.2       1 <0>         0.5169
     22 O2         -7.5851   -5.7838    0.3929 O.2       1 <0>        -0.5261
     23 N3         -8.3987   -6.0491   -1.6539 N.am      1 <0>        -0.7122
     24 C17        -9.7772   -5.9690   -1.1647 C.3       1 <0>         0.1277
     25 C18       -10.7445   -6.2386   -2.3190 C.3       1 <0>         0.1021
     26 C19       -12.1820   -6.0249   -1.8404 C.3       1 <0>        -0.1472
     27 C20       -12.4836   -6.9846   -0.6876 C.3       1 <0>        -0.1206
     28 C21       -12.3151   -8.4275   -1.1678 C.3       1 <0>        -0.1235
     29 C22       -10.8777   -8.6412   -1.6464 C.3       1 <0>        -0.1194
     30 C23       -10.5761   -7.6815   -2.7992 C.3       1 <0>        -0.1049
     31 N4        -10.4549   -5.3172   -3.4259 N.3       1 <0>        -0.5260
     32 C24       -10.5805   -3.9178   -2.9931 C.3       1 <0>         0.0096
     33 C25       -10.2131   -2.9942   -4.1575 C.3       1 <0>         0.0650
     34 O3        -11.0507   -3.2917   -5.2779 O.3       1 <0>        -0.3807
     35 C26       -10.9530   -4.6462   -5.7263 C.3       1 <0>         0.0636
     36 C27       -11.3279   -5.5865   -4.5777 C.3       1 <0>         0.0110
     37 H3          1.8034   -0.1904    1.6855 H         1 <0>         0.0560
     38 H4          0.8418    0.0433    0.2060 H         1 <0>         0.0543
     39 H5          0.0414    0.0369    1.7959 H         1 <0>         0.0540
     40 H6          1.4519   -2.3417    0.5036 H         1 <0>         0.0626
     41 H7          0.6516   -2.3481    2.0934 H         1 <0>         0.0615
     42 H8         -1.5020   -1.7646    1.0116 H         1 <0>         0.0627
     43 H9         -0.7017   -1.7582   -0.5782 H         1 <0>         0.0666
     44 H10        -0.0915   -4.1431   -0.2807 H         1 <0>         0.0757
     45 H11        -0.8919   -4.1495    1.3092 H         1 <0>         0.0656
     46 H12        -1.3379   -3.9148   -2.3197 H         1 <0>         0.0662
     47 H13        -3.1139   -3.7948   -2.3231 H         1 <0>         0.0546
     48 H14        -2.1289   -2.4042   -1.8091 H         1 <0>         0.0765
     49 H15        -5.4462   -5.0409    0.5839 H         1 <0>         0.0991
     50 H16        -4.8349   -4.2023   -0.8754 H         1 <0>         0.0935
     51 H17        -3.4145   -8.0363   -0.5417 H         1 <0>         0.0881
     52 H18        -4.5021   -7.5835    0.8073 H         1 <0>         0.0829
     53 H19        -5.8152   -7.9563   -3.2116 H         1 <0>         0.0960
     54 H20        -4.1595   -7.3793   -2.9014 H         1 <0>         0.1173
     55 H21        -4.1995   -9.8274   -3.3402 H         1 <0>         0.1394
     56 H22        -3.6487   -9.4730   -1.6854 H         1 <0>         0.1341
     57 H23        -6.3954  -10.1857   -2.4300 H         1 <0>         0.4271
     58 H24        -6.7096  -10.4560   -0.0622 H         1 <0>         0.1388
     59 H25        -5.0595   -9.8265    0.1570 H         1 <0>         0.1331
     60 H26        -6.7269   -8.0223    0.4525 H         1 <0>         0.1267
     61 H27        -7.3752   -8.3468   -1.1738 H         1 <0>         0.0967
     62 H28        -8.2264   -6.1774   -2.5999 H         1 <0>         0.4075
     63 H29        -9.9289   -6.7127   -0.3824 H         1 <0>         0.0854
     64 H30        -9.9622   -4.9737   -0.7606 H         1 <0>         0.0699
     65 H31       -12.3020   -4.9970   -1.4983 H         1 <0>         0.0702
     66 H32       -12.8711   -6.2170   -2.6628 H         1 <0>         0.0739
     67 H33       -11.7945   -6.7926    0.1348 H         1 <0>         0.0656
     68 H34       -13.5076   -6.8324   -0.3466 H         1 <0>         0.0689
     69 H35       -12.5300   -9.1112   -0.3465 H         1 <0>         0.0663
     70 H36       -13.0042   -8.6195   -1.9902 H         1 <0>         0.0649
     71 H37       -10.1886   -8.4491   -0.8240 H         1 <0>         0.0625
     72 H38       -10.7577   -9.6691   -1.9885 H         1 <0>         0.0639
     73 H39       -11.2652   -7.8735   -3.6216 H         1 <0>         0.0720
     74 H40        -9.5520   -7.8337   -3.1402 H         1 <0>         0.0638
     75 H41       -11.6075   -3.7232   -2.6842 H         1 <0>         0.0521
     76 H42        -9.9069   -3.7339   -2.1561 H         1 <0>         0.0875
     77 H43       -10.3596   -1.9562   -3.8589 H         1 <0>         0.0996
     78 H44        -9.1697   -3.1511   -4.4312 H         1 <0>         0.0573
     79 H45       -11.6346   -4.8029   -6.5623 H         1 <0>         0.0997
     80 H46        -9.9311   -4.8511   -6.0456 H         1 <0>         0.0578
     81 H47       -11.1999   -6.6207   -4.8975 H         1 <0>         0.0895
     82 H48       -12.3669   -5.4185   -4.2942 H         1 <0>         0.0516
     83 H49        -5.2938  -11.2253   -1.7858 H         1 <0>         0.4340
@<TRIPOS>BOND
     1    1    2 1
     2    1   37 1
     3    1   38 1
     4    1   39 1
     5    2    3 1
     6    2   40 1
     7    2   41 1
     8    3    4 1
     9    3   42 1
    10    3   43 1
    11    4    5 1
    12    4   44 1
    13    4   45 1
    14    5    6 1
    15    5    7 1
    16    5    8 1
    17    7   46 1
    18    7   47 1
    19    7   48 1
    20    8    9 2
    21    8   10 am
    22   10   15 1
    23   10   11 1
    24   11   12 1
    25   11   49 1
    26   11   50 1
    27   12   13 1
    28   12   14 1
    29   12   21 1
    30   14   20 1
    31   14   15 1
    32   14   16 1
    33   15   51 1
    34   15   52 1
    35   16   17 1
    36   16   53 1
    37   16   54 1
    38   17   18 1
    39   17   55 1
    40   17   56 1
    41   18   19 1
    42   18   57 1
    43   18   83 1
    44   19   20 1
    45   19   58 1
    46   19   59 1
    47   20   60 1
    48   20   61 1
    49   21   22 2
    50   21   23 am
    51   23   24 1
    52   23   62 1
    53   24   25 1
    54   24   63 1
    55   24   64 1
    56   25   30 1
    57   25   26 1
    58   25   31 1
    59   26   27 1
    60   26   65 1
    61   26   66 1
    62   27   28 1
    63   27   67 1
    64   27   68 1
    65   28   29 1
    66   28   69 1
    67   28   70 1
    68   29   30 1
    69   29   71 1
    70   29   72 1
    71   30   73 1
    72   30   74 1
    73   31   36 1
    74   31   32 1
    75   32   33 1
    76   32   75 1
    77   32   76 1
    78   33   34 1
    79   33   77 1
    80   33   78 1
    81   34   35 1
    82   35   36 1
    83   35   79 1
    84   35   80 1
    85   36   81 1
    86   36   82 1
@<TRIPOS>MOLECULE
ZINC64046577
   58    61     0     0     0
SMALL
USER_CHARGES

@<TRIPOS>ATOM
      1 C1          1.8223   -1.9947    1.8002 C.3       1 <0>        -0.1453
      2 C2          0.7367   -1.6052    0.8302 C.ar      1 <0>         0.0069
      3 C3          0.7192   -2.1500   -0.4409 C.ar      1 <0>        -0.1180
      4 C4         -0.2742   -1.7952   -1.3321 C.ar      1 <0>        -0.0565
      5 C5         -1.2566   -0.8904   -0.9507 C.ar      1 <0>         0.1246
      6 C6         -1.2364   -0.3456    0.3263 C.ar      1 <0>        -0.0495
      7 C7         -0.2427   -0.7083    1.2147 C.ar      1 <0>        -0.6660
      8 S1         -0.2200   -0.0227    2.8377 S.o2      1 <0>         2.6959
      9 O1         -1.3332    0.8564    2.9228 O.2       1 <0>        -0.9509
     10 O2         -0.0369   -1.1092    3.7350 O.2       1 <0>        -0.9369
     11 N1          1.1370    0.9195    2.9521 N.pl3     1 <0>        -1.1164
     12 C8          1.2990    2.0804    2.0733 C.3       1 <0>         0.1265
     13 C9          2.3740    3.0069    2.6451 C.3       1 <0>        -0.0243
     14 H1          3.2953    2.4445    2.7966 H         1 <0>         0.1336
     15 C10         1.9049    3.5671    3.9632 C.ar      1 <0>        -0.0960
     16 C11         0.7452    4.3171    4.0222 C.ar      1 <0>        -0.1112
     17 C12         0.3149    4.8309    5.2310 C.ar      1 <0>        -0.1007
     18 C13         1.0440    4.5952    6.3818 C.ar      1 <0>        -0.0885
     19 C14         2.2035    3.8456    6.3241 C.ar      1 <0>        -0.0971
     20 C15         2.6318    3.3261    5.1152 C.ar      1 <0>        -0.0243
     21 Cl1         4.0847    2.3788    5.0431 Cl        1 <0>        -0.0539
     22 C16         2.6280    4.1369    1.6809 C.2       1 <0>         0.0730
     23 C17         3.7971    4.4383    1.0713 C.ar      1 <0>        -0.1577
     24 C18         5.1313    3.8286    1.1223 C.ar      1 <0>        -0.0120
     25 C19         6.1275    4.3675    0.3832 C.ar      1 <0>        -0.1487
     26 C20         5.9183    5.4912   -0.4281 C.ar      1 <0>         0.0569
     27 C21         4.7209    6.1065   -0.5270 C.ar      1 <0>        -0.2097
     28 C22         3.6021    5.6240    0.2065 C.ar      1 <0>         0.3305
     29 N2          2.3608    6.0393    0.2787 N.pl3     1 <0>        -0.5818
     30 C23         1.6256    5.1593    1.1940 C.3       1 <0>         0.0520
     31 N3         -2.2643   -0.5285   -1.8515 N.am      1 <0>        -0.6784
     32 C24        -2.7385   -1.4328   -2.7312 C.2       1 <0>         0.5114
     33 O3         -2.3590   -2.5837   -2.6817 O.2       1 <0>        -0.5203
     34 C25        -3.7403   -1.0139   -3.7762 C.3       1 <0>        -0.1708
     35 H2          1.4685   -2.8077    2.4341 H         1 <0>         0.1019
     36 H3          2.7031   -2.3217    1.2476 H         1 <0>         0.0859
     37 H4          2.0805   -1.1363    2.4204 H         1 <0>         0.0647
     38 H5          1.4833   -2.8534   -0.7369 H         1 <0>         0.1403
     39 H6         -0.2870   -2.2204   -2.3248 H         1 <0>         0.1441
     40 H7         -1.9989    0.3581    0.6259 H         1 <0>         0.1471
     41 H8          1.8246    0.7028    3.6011 H         1 <0>         0.4238
     42 H9          1.5989    1.7453    1.0804 H         1 <0>         0.0864
     43 H10         0.3539    2.6191    2.0049 H         1 <0>         0.0941
     44 H11         0.1755    4.5018    3.1235 H         1 <0>         0.1323
     45 H12        -0.5911    5.4171    5.2765 H         1 <0>         0.1403
     46 H13         0.7074    4.9972    7.3260 H         1 <0>         0.1433
     47 H14         2.7731    3.6618    7.2231 H         1 <0>         0.1451
     48 H15         5.3148    2.9627    1.7411 H         1 <0>         0.1601
     49 H16         7.1099    3.9204    0.4192 H         1 <0>         0.1592
     50 H17         6.7494    5.8810   -0.9970 H         1 <0>         0.1621
     51 H18         4.6120    6.9700   -1.1665 H         1 <0>         0.1620
     52 H19         0.8093    4.6643    0.6680 H         1 <0>         0.1767
     53 H20         1.2375    5.7348    2.0344 H         1 <0>         0.1764
     54 H21        -2.6215    0.3733   -1.8429 H         1 <0>         0.4138
     55 H22        -3.9587    0.0482   -3.6650 H         1 <0>         0.0799
     56 H23        -3.3288   -1.1984   -4.7685 H         1 <0>         0.1032
     57 H24        -4.6579   -1.5886   -3.6508 H         1 <0>         0.1037
     58 H25         1.9895    6.7990   -0.1965 H         1 <0>         0.4570
@<TRIPOS>BOND
     1    1    2 1
     2    1   35 1
     3    1   36 1
     4    1   37 1
     5    2    7 ar
     6    2    3 ar
     7    3    4 ar
     8    3   38 1
     9    4    5 ar
    10    4   39 1
    11    5    6 ar
    12    5   31 1
    13    6    7 ar
    14    6   40 1
    15    7    8 1
    16    8    9 2
    17    8   10 2
    18    8   11 1
    19   11   12 1
    20   11   41 1
    21   12   13 1
    22   12   42 1
    23   12   43 1
    24   13   14 1
    25   13   15 1
    26   13   22 1
    27   15   20 ar
    28   15   16 ar
    29   16   17 ar
    30   16   44 1
    31   17   18 ar
    32   17   45 1
    33   18   19 ar
    34   18   46 1
    35   19   20 ar
    36   19   47 1
    37   20   21 1
    38   22   30 1
    39   22   23 2
    40   23   28 ar
    41   23   24 ar
    42   24   25 ar
    43   24   48 1
    44   25   26 ar
    45   25   49 1
    46   26   27 ar
    47   26   50 1
    48   27   28 ar
    49   27   51 1
    50   28   29 2
    51   29   30 1
    52   29   58 1
    53   30   52 1
    54   30   53 1
    55   31   32 am
    56   31   54 1
    57   32   33 2
    58   32   34 1
    59   34   55 1
    60   34   56 1
    61   34   57 1
@<TRIPOS>MOLECULE
ZINC09531782
   59    61     0     0     0
SMALL
USER_CHARGES
N'-[2-[2-(5-chloro-1H-indol-3-yl)ethylcarbamoyl]phenyl]-N-(2-dimethylaminoethyl)oxamide
@<TRIPOS>ATOM
      1 C1          6.9891    1.4688   -2.3431 C.3       1 <0>        -0.0419
      2 C2          5.7654    3.5377   -2.6343 C.3       1 <0>        -0.0509
      3 C3          4.6165    1.5492   -1.8671 C.3       1 <0>        -0.0191
      4 C4          3.5421    2.3479   -1.1263 C.3       1 <0>         0.0927
      5 N1          2.2821    1.6006   -1.1396 N.am      1 <0>        -0.7078
      6 C5          1.1881    2.1137   -0.5425 C.2       1 <0>         0.5203
      7 O1          1.2468    3.1946    0.0060 O.2       1 <0>        -0.4887
      8 C6         -0.0966    1.3519   -0.5560 C.2       1 <0>         0.5096
      9 O2         -0.1553    0.2709   -1.1046 O.2       1 <0>        -0.5010
     10 N2         -1.1920    1.8674    0.0362 N.am      1 <0>        -0.6216
     11 C7         -2.4116    1.2052   -0.0603 C.ar      1 <0>         0.1908
     12 C8         -2.4534   -0.1831   -0.0677 C.ar      1 <0>        -0.1280
     13 C9         -3.6651   -0.8379   -0.1582 C.ar      1 <0>        -0.0706
     14 C10        -4.8456   -0.1186   -0.2528 C.ar      1 <0>        -0.1304
     15 C11        -4.8231    1.2594   -0.2528 C.ar      1 <0>        -0.0661
     16 C12        -3.6053    1.9364   -0.1565 C.ar      1 <0>        -0.1599
     17 C13        -3.5741    3.4113   -0.1564 C.2       1 <0>         0.5628
     18 O3         -2.5087    3.9969   -0.1726 O.2       1 <0>        -0.5412
     19 N3         -4.7267    4.1097   -0.1383 N.am      1 <0>        -0.7210
     20 C14        -4.6958    5.5744   -0.1382 C.3       1 <0>         0.1235
     21 C15        -6.1270    6.1147   -0.1159 C.3       1 <0>        -0.0549
     22 C16        -6.0952    7.6214   -0.1158 C.2       1 <0>        -0.1722
     23 C17        -6.1553    8.4212    0.9606 C.2       1 <0>         0.0708
     24 N4         -6.0993    9.7318    0.5718 N.pl3     1 <0>        -0.5908
     25 H1         -6.1258   10.4929    1.1726 H         1 <0>         0.4208
     26 C18        -5.9992    9.8094   -0.8000 C.ar      1 <0>         0.0994
     27 C19        -5.9864    8.4907   -1.2898 C.ar      1 <0>        -0.0903
     28 C20        -5.8978    8.2582   -2.6637 C.ar      1 <0>        -0.0622
     29 C21        -5.8128    9.3249   -3.5310 C.ar      1 <0>        -0.0575
     30 C22        -5.8198   10.6265   -3.0458 C.ar      1 <0>        -0.0898
     31 C23        -5.9120   10.8715   -1.6934 C.ar      1 <0>        -0.1136
     32 Cl1        -5.6958    9.0411   -5.2396 Cl        1 <0>        -0.0707
     33 H2          6.7820    1.1511   -3.3650 H         1 <0>         0.1253
     34 H3          7.9124    2.0478   -2.3228 H         1 <0>         0.1266
     35 H4          7.0961    0.5919   -1.7046 H         1 <0>         0.1237
     36 H5          4.9827    4.1648   -2.2075 H         1 <0>         0.1241
     37 H6          6.7146    4.0728   -2.6078 H         1 <0>         0.1275
     38 H7          5.5139    3.2949   -3.6667 H         1 <0>         0.1265
     39 H8          4.7591    0.5876   -1.3740 H         1 <0>         0.1399
     40 H9          4.3018    1.3858   -2.8978 H         1 <0>         0.1415
     41 H10         3.3995    3.3094   -1.6195 H         1 <0>         0.0956
     42 H11         3.8568    2.5112   -0.0956 H         1 <0>         0.0954
     43 H12         2.2351    0.7367   -1.5780 H         1 <0>         0.4210
     44 H13        -1.1300    2.7002    0.5297 H         1 <0>         0.4348
     45 H14        -1.5373   -0.7508    0.0016 H         1 <0>         0.1465
     46 H15        -3.6929   -1.9175   -0.1593 H         1 <0>         0.1369
     47 H16        -5.7882   -0.6405   -0.3273 H         1 <0>         0.1368
     48 H17        -5.7461    1.8151   -0.3275 H         1 <0>         0.1345
     49 H18        -5.5767    3.6425   -0.1254 H         1 <0>         0.4027
     50 H19        -4.1607    5.9264    0.7438 H         1 <0>         0.0722
     51 H20        -4.1882    5.9271   -1.0360 H         1 <0>         0.0721
     52 H21        -6.6621    5.7627   -0.9979 H         1 <0>         0.0795
     53 H22        -6.6346    5.7619    0.7819 H         1 <0>         0.0803
     54 H23        -6.2359    8.0805    1.9823 H         1 <0>         0.1745
     55 H24        -5.8915    7.2474   -3.0440 H         1 <0>         0.1315
     56 H25        -5.7519   11.4546   -3.7358 H         1 <0>         0.1378
     57 H26        -5.9169   11.8876   -1.3273 H         1 <0>         0.1315
     58 N5          5.8857    2.3056   -1.8266 N.4       1 <0>        -0.3937
     59 H27         6.0896    2.5631   -0.8538 H         1 <0>         0.4345
@<TRIPOS>BOND
     1    1   33 1
     2    1   34 1
     3    1   35 1
     4    1   58 1
     5    2   36 1
     6    2   37 1
     7    2   38 1
     8    2   58 1
     9    3    4 1
    10    3   39 1
    11    3   40 1
    12    3   58 1
    13    4    5 1
    14    4   41 1
    15    4   42 1
    16    5    6 am
    17    5   43 1
    18    6    7 2
    19    6    8 1
    20    8    9 2
    21    8   10 am
    22   10   11 1
    23   10   44 1
    24   11   16 ar
    25   11   12 ar
    26   12   13 ar
    27   12   45 1
    28   13   14 ar
    29   13   46 1
    30   14   15 ar
    31   14   47 1
    32   15   16 ar
    33   15   48 1
    34   16   17 1
    35   17   18 2
    36   17   19 am
    37   19   20 1
    38   19   49 1
    39   20   21 1
    40   20   50 1
    41   20   51 1
    42   21   22 1
    43   21   52 1
    44   21   53 1
    45   22   27 1
    46   22   23 2
    47   23   24 1
    48   23   54 1
    49   24   25 1
    50   24   26 1
    51   26   31 ar
    52   26   27 ar
    53   27   28 ar
    54   28   29 ar
    55   28   55 1
    56   29   30 ar
    57   29   32 1
    58   30   31 ar
    59   30   56 1
    60   31   57 1
    61   58   59 1
@<TRIPOS>MOLECULE
ZINC40744423
   45    46     0     0     0
SMALL
USER_CHARGES

@<TRIPOS>ATOM
      1 C1         -0.0187    1.5258    0.0104 C.3       1 <0>        -0.1516
      2 C2          0.0021   -0.0041    0.0020 C.3       1 <0>        -0.1236
      3 C3          0.7421   -0.5109    1.2415 C.3       1 <0>         0.0683
      4 O1          0.7614   -1.9398    1.2337 O.3       1 <0>        -0.3175
      5 C4          1.3854   -2.5543    2.2735 C.ar      1 <0>         0.1600
      6 C5          2.7401   -2.8461    2.1972 C.ar      1 <0>        -0.0535
      7 C6          3.3721   -3.4711    3.2563 C.ar      1 <0>        -0.0672
      8 C7          2.6558   -3.8055    4.3905 C.ar      1 <0>        -0.1568
      9 C8          1.3061   -3.5161    4.4694 C.ar      1 <0>        -0.0671
     10 C9          0.6701   -2.8859    3.4157 C.ar      1 <0>        -0.0535
     11 Cl1        -1.0228   -2.5159    3.5187 Cl        1 <0>        -0.0133
     12 C10         3.3473   -4.4872    5.5430 C.3       1 <0>         0.0522
     13 N1          3.8696   -3.4738    6.4694 N.4       1 <0>        -0.5063
     14 C11         4.5437   -4.1383    7.5927 C.3       1 <0>        -0.0237
     15 C12         5.0876   -3.0828    8.5576 C.3       1 <0>         0.0933
     16 N2          5.7599   -3.7454    9.6779 N.am      1 <0>        -0.7125
     17 C13         6.3199   -3.0095   10.6584 C.2       1 <0>         0.6107
     18 O2          6.2672   -1.7964   10.6131 O.2       1 <0>        -0.4952
     19 C14         6.9996   -3.6796   11.7911 C.2       1 <0>         0.0169
     20 C15         7.6445   -3.0084   12.9254 C.2       1 <0>         0.3618
     21 N3          8.1327   -3.9224   13.7191 N.2       1 <0>        -0.3393
     22 O3          7.8386   -5.1894   13.1581 O.3       1 <0>         0.0585
     23 N4          7.1232   -4.9710   11.9550 N.2       1 <0>        -0.2240
     24 N5          7.7222   -1.6364   13.1209 N.pl3     1 <0>        -0.8020
     25 Cl2         3.6402   -2.4271    0.7731 Cl        1 <0>        -0.0134
     26 H1          1.0039    1.9031    0.0027 H         1 <0>         0.0584
     27 H2         -0.5459    1.8868   -0.8726 H         1 <0>         0.0706
     28 H3         -0.5289    1.8773    0.9072 H         1 <0>         0.0583
     29 H4         -1.0205   -0.3814    0.0098 H         1 <0>         0.0777
     30 H5          0.5123   -0.3556   -0.8948 H         1 <0>         0.0777
     31 H6          1.7647   -0.1336    1.2338 H         1 <0>         0.0614
     32 H7          0.2319   -0.1594    2.1383 H         1 <0>         0.0614
     33 H8          4.4262   -3.6987    3.1973 H         1 <0>         0.1545
     34 H9          0.7490   -3.7787    5.3565 H         1 <0>         0.1545
     35 H10         2.6364   -5.1262    6.0667 H         1 <0>         0.1486
     36 H11         4.1709   -5.0932    5.1654 H         1 <0>         0.1486
     37 H12         4.5277   -2.8822    5.9846 H         1 <0>         0.4327
     38 H13         3.8327   -4.7773    8.1165 H         1 <0>         0.1456
     39 H14         5.3673   -4.7442    7.2152 H         1 <0>         0.1456
     40 H15         5.7986   -2.4437    8.0339 H         1 <0>         0.0999
     41 H16         4.2640   -2.4768    8.9352 H         1 <0>         0.0999
     42 H17         5.8020   -4.7139    9.7140 H         1 <0>         0.4197
     43 H18         7.3278   -1.0312   12.4735 H         1 <0>         0.4284
     44 H19         8.1709   -1.2828   13.9048 H         1 <0>         0.4228
     45 H20         3.1072   -2.9128    6.8189 H         1 <0>         0.4327
@<TRIPOS>BOND
     1    1    2 1
     2    1   26 1
     3    1   27 1
     4    1   28 1
     5    2    3 1
     6    2   29 1
     7    2   30 1
     8    3    4 1
     9    3   31 1
    10    3   32 1
    11    4    5 1
    12    5   10 ar
    13    5    6 ar
    14    6    7 ar
    15    6   25 1
    16    7    8 ar
    17    7   33 1
    18    8    9 ar
    19    8   12 1
    20    9   10 ar
    21    9   34 1
    22   10   11 1
    23   12   13 1
    24   12   35 1
    25   12   36 1
    26   13   14 1
    27   13   37 1
    28   13   45 1
    29   14   15 1
    30   14   38 1
    31   14   39 1
    32   15   16 1
    33   15   40 1
    34   15   41 1
    35   16   17 am
    36   16   42 1
    37   17   18 2
    38   17   19 1
    39   19   23 2
    40   19   20 1
    41   20   21 2
    42   20   24 1
    43   21   22 1
    44   22   23 1
    45   24   43 1
    46   24   44 1
@<TRIPOS>MOLECULE
ZINC47045081
   55    55     0     0     0
SMALL
USER_CHARGES

@<TRIPOS>ATOM
      1 C1          0.4930    2.4369   -0.4646 C.3       1 <0>        -0.1684
      2 C2          0.2610    0.9249   -0.4979 C.3       1 <0>         0.1502
      3 C3         -1.2390    0.6412   -0.5992 C.3       1 <0>        -0.1638
      4 N1          0.9460    0.3513   -1.6590 N.am      1 <0>        -0.7228
      5 C4          2.2496    0.0192   -1.5762 C.2       1 <0>         0.6916
      6 O1          2.8569    0.1957   -0.5383 O.2       1 <0>        -0.5147
      7 N2          2.8797   -0.5085   -2.6443 N.am      1 <0>        -0.6764
      8 C5          4.1833   -0.8406   -2.5615 C.2       1 <0>         0.5139
      9 O2          4.7891   -0.6645   -1.5263 O.2       1 <0>        -0.4459
     10 C6          4.8878   -1.4307   -3.7559 C.3       1 <0>        -0.0366
     11 N3          6.2898   -1.7033   -3.4120 N.4       1 <0>        -0.3558
     12 C7          6.3464   -2.7422   -2.3749 C.3       1 <0>         0.0314
     13 C8          5.6577   -3.9868   -2.8725 C.2       1 <0>        -0.1791
     14 C9          4.3096   -4.1835   -2.6387 C.2       1 <0>        -0.1741
     15 C10         3.7206   -5.3139   -3.0998 C.2       1 <0>        -0.1461
     16 S1          5.0872   -6.1454   -3.8926 S.3       1 <0>         0.1363
     17 C11         6.3496   -4.9275   -3.5607 C.2       1 <0>        -0.1671
     18 C12         7.0063   -2.1659   -4.6081 C.3       1 <0>        -0.0395
     19 C13         8.4750   -2.2941   -4.2956 C.2       1 <0>         0.5118
     20 O3          8.9008   -1.9250   -3.2222 O.2       1 <0>        -0.4444
     21 N4          9.3150   -2.8192   -5.2094 N.am      1 <0>        -0.6774
     22 C14        10.6285   -2.9339   -4.9300 C.2       1 <0>         0.6912
     23 O4         11.0554   -2.5639   -3.8539 O.2       1 <0>        -0.5143
     24 N5         11.4685   -3.4590   -5.8438 N.am      1 <0>        -0.7226
     25 C15        12.8962   -3.5836   -5.5400 C.3       1 <0>         0.1501
     26 C16        13.5011   -4.7070   -6.3844 C.3       1 <0>        -0.1639
     27 C17        13.6033   -2.2658   -5.8628 C.3       1 <0>        -0.1684
     28 H1          1.5616    2.6390   -0.3925 H         1 <0>         0.0608
     29 H2          0.0992    2.8851   -1.3769 H         1 <0>         0.0599
     30 H3         -0.0166    2.8637    0.3992 H         1 <0>         0.0747
     31 H4          0.6549    0.4768    0.4143 H         1 <0>         0.0944
     32 H5         -1.6328    1.0894   -1.5114 H         1 <0>         0.0648
     33 H6         -1.4042   -0.4359   -0.6229 H         1 <0>         0.0641
     34 H7         -1.7486    1.0680    0.2647 H         1 <0>         0.0821
     35 H8          0.4613    0.2104   -2.4873 H         1 <0>         0.4013
     36 H9          2.3950   -0.6494   -3.4726 H         1 <0>         0.4181
     37 H10         4.3972   -2.3602   -4.0445 H         1 <0>         0.1698
     38 H11         4.8479   -0.7257   -4.5862 H         1 <0>         0.1710
     39 H12         7.3874   -2.9700   -2.1454 H         1 <0>         0.1515
     40 H13         5.8458   -2.3849   -1.4750 H         1 <0>         0.1593
     41 H14         3.7342   -3.4477   -2.0965 H         1 <0>         0.1384
     42 H15         2.6917   -5.6299   -3.0104 H         1 <0>         0.1996
     43 H16         7.3939   -4.9380   -3.8359 H         1 <0>         0.1910
     44 H17         6.6140   -3.1356   -4.9143 H         1 <0>         0.1666
     45 H18         6.8680   -1.4466   -5.4153 H         1 <0>         0.1734
     46 H19         8.9743   -3.1145   -6.0682 H         1 <0>         0.4181
     47 H20        11.1278   -3.7543   -6.7026 H         1 <0>         0.4015
     48 H21        13.0239   -3.8150   -4.4825 H         1 <0>         0.0945
     49 H22        13.3735   -4.4757   -7.4419 H         1 <0>         0.0648
     50 H23        14.5634   -4.7998   -6.1584 H         1 <0>         0.0822
     51 H24        12.9974   -5.6459   -6.1545 H         1 <0>         0.0642
     52 H25        13.1724   -1.4654   -5.2612 H         1 <0>         0.0608
     53 H26        14.6656   -2.3586   -5.6367 H         1 <0>         0.0748
     54 H27        13.4757   -2.0344   -6.9203 H         1 <0>         0.0599
     55 H28         6.7216   -0.8593   -3.0666 H         1 <0>         0.4431
@<TRIPOS>BOND
     1    1    2 1
     2    1   28 1
     3    1   29 1
     4    1   30 1
     5    2    3 1
     6    2    4 1
     7    2   31 1
     8    3   32 1
     9    3   33 1
    10    3   34 1
    11    4    5 am
    12    4   35 1
    13    5    6 2
    14    5    7 am
    15    7    8 am
    16    7   36 1
    17    8    9 2
    18    8   10 1
    19   10   11 1
    20   10   37 1
    21   10   38 1
    22   11   12 1
    23   11   18 1
    24   11   55 1
    25   12   13 1
    26   12   39 1
    27   12   40 1
    28   13   17 2
    29   13   14 1
    30   14   15 2
    31   14   41 1
    32   15   16 1
    33   15   42 1
    34   16   17 1
    35   17   43 1
    36   18   19 1
    37   18   44 1
    38   18   45 1
    39   19   20 2
    40   19   21 am
    41   21   22 am
    42   21   46 1
    43   22   23 2
    44   22   24 am
    45   24   25 1
    46   24   47 1
    47   25   26 1
    48   25   27 1
    49   25   48 1
    50   26   49 1
    51   26   50 1
    52   26   51 1
    53   27   52 1
    54   27   53 1
    55   27   54 1
@<TRIPOS>MOLECULE
ZINC60649660
   52    52     0     0     0
SMALL
USER_CHARGES

@<TRIPOS>ATOM
      1 C1          1.2117   -4.3301   -0.1537 C.3       1 <0>        -0.1169
      2 C2         -0.2058   -4.7315   -0.4706 C.ar      1 <0>        -0.0699
      3 C3         -0.4578   -5.6344   -1.4868 C.ar      1 <0>        -0.1267
      4 C4         -1.7579   -6.0026   -1.7775 C.ar      1 <0>        -0.1076
      5 C5         -2.8064   -5.4684   -1.0516 C.ar      1 <0>        -0.1312
      6 C6         -2.5544   -4.5665   -0.0351 C.ar      1 <0>        -0.0707
      7 C7         -1.2536   -4.2014    0.2584 C.ar      1 <0>        -0.1048
      8 C8         -0.9785   -3.2220    1.3702 C.3       1 <0>         0.2317
      9 C9         -2.2778   -2.5142    1.7595 C.3       1 <0>        -0.1651
     10 C10        -1.9823   -1.4492    2.7840 C.2       1 <0>         0.5235
     11 O1         -0.8444   -1.2737    3.1653 O.2       1 <0>        -0.5276
     12 N1         -2.9824   -0.6919    3.2766 N.am      1 <0>        -0.7402
     13 C11        -2.6951    0.3434    4.2725 C.3       1 <0>         0.1251
     14 C12        -3.9944    1.0512    4.6618 C.3       1 <0>        -0.1645
     15 C13        -3.6943    2.1324    5.7019 C.3       1 <0>        -0.0055
     16 N2         -4.9419    2.8120    6.0756 N.4       1 <0>        -0.3861
     17 C14        -5.4759    3.5307    4.9110 C.3       1 <0>        -0.0801
     18 C15        -4.6737    3.7667    7.1594 C.3       1 <0>        -0.0554
     19 C16        -5.9934    4.3666    7.6489 C.3       1 <0>         0.4496
     20 F1         -6.8712    3.3362    8.0024 F         1 <0>        -0.1671
     21 F2         -5.7523    5.1768    8.7636 F         1 <0>        -0.1432
     22 F3         -6.5632    5.1351    6.6282 F         1 <0>        -0.1626
     23 N3         -0.4460   -3.9387    2.5317 N.am      1 <0>        -0.7295
     24 C17        -1.1628   -4.9288    3.0994 C.2       1 <0>         0.7041
     25 O2         -2.2082   -5.2894    2.5939 O.2       1 <0>        -0.5854
     26 N4         -0.7208   -5.5193    4.2274 N.am      1 <0>        -0.8695
     27 H1          1.6245   -5.0112    0.5904 H         1 <0>         0.0693
     28 H2          1.8137   -4.3754   -1.0613 H         1 <0>         0.0676
     29 H3          1.2222   -3.3133    0.2389 H         1 <0>         0.0650
     30 H4          0.3612   -6.0518   -2.0538 H         1 <0>         0.1213
     31 H5         -1.9548   -6.7074   -2.5718 H         1 <0>         0.1213
     32 H6         -3.8224   -5.7556   -1.2792 H         1 <0>         0.1202
     33 H7         -3.3735   -4.1489    0.5316 H         1 <0>         0.1209
     34 H8         -0.2500   -2.4847    1.0329 H         1 <0>         0.1058
     35 H9         -2.7204   -2.0551    0.8755 H         1 <0>         0.1076
     36 H10        -2.9748   -3.2393    2.1798 H         1 <0>         0.1203
     37 H11        -3.8925   -0.8323    2.9716 H         1 <0>         0.4042
     38 H12        -2.2525   -0.1157    5.1565 H         1 <0>         0.0775
     39 H13        -1.9982    1.0684    3.8522 H         1 <0>         0.0790
     40 H14        -4.4370    1.5103    3.7778 H         1 <0>         0.0989
     41 H15        -4.6913    0.3261    5.0821 H         1 <0>         0.0980
     42 H16        -3.2518    1.6733    6.5859 H         1 <0>         0.1418
     43 H17        -2.9974    2.8575    5.2816 H         1 <0>         0.1425
     44 H18        -5.5705    2.8422    4.0713 H         1 <0>         0.1368
     45 H19        -6.4552    3.9421    5.1556 H         1 <0>         0.1390
     46 H20        -4.7982    4.3410    4.6420 H         1 <0>         0.1340
     47 H21        -4.1809    3.2514    7.9839 H         1 <0>         0.1794
     48 H22        -4.0273    4.5631    6.7905 H         1 <0>         0.1797
     49 H23         0.4226   -3.7007    2.8921 H         1 <0>         0.4013
     50 H24         0.1132   -5.2317    4.6307 H         1 <0>         0.3963
     51 H25        -1.2368   -6.2319    4.6360 H         1 <0>         0.4147
     52 H26        -5.6162    2.1295    6.3879 H         1 <0>         0.4332
@<TRIPOS>BOND
     1    1    2 1
     2    1   27 1
     3    1   28 1
     4    1   29 1
     5    2    7 ar
     6    2    3 ar
     7    3    4 ar
     8    3   30 1
     9    4    5 ar
    10    4   31 1
    11    5    6 ar
    12    5   32 1
    13    6    7 ar
    14    6   33 1
    15    7    8 1
    16    8    9 1
    17    8   23 1
    18    8   34 1
    19    9   10 1
    20    9   35 1
    21    9   36 1
    22   10   11 2
    23   10   12 am
    24   12   13 1
    25   12   37 1
    26   13   14 1
    27   13   38 1
    28   13   39 1
    29   14   15 1
    30   14   40 1
    31   14   41 1
    32   15   16 1
    33   15   42 1
    34   15   43 1
    35   16   17 1
    36   16   18 1
    37   16   52 1
    38   17   44 1
    39   17   45 1
    40   17   46 1
    41   18   19 1
    42   18   47 1
    43   18   48 1
    44   19   20 1
    45   19   21 1
    46   19   22 1
    47   23   24 am
    48   23   49 1
    49   24   25 2
    50   24   26 am
    51   26   50 1
    52   26   51 1
@<TRIPOS>MOLECULE
ZINC67622313
   61    62     0     0     0
SMALL
USER_CHARGES

@<TRIPOS>ATOM
      1 C1         -0.0187    1.5258    0.0104 C.3       1 <0>        -0.1542
      2 C2          0.0021   -0.0041    0.0020 C.3       1 <0>        -0.1381
      3 C3          0.7421   -0.5109    1.2415 C.3       1 <0>         0.1120
      4 N1          0.7619   -1.9757    1.2335 N.am      1 <0>        -0.7025
      5 C4          1.3642   -2.6470    2.2350 C.2       1 <0>         0.4989
      6 O1          1.8898   -2.0384    3.1429 O.2       1 <0>        -0.5280
      7 C5          1.3847   -4.1539    2.2267 C.3       1 <0>        -0.0318
      8 N2          2.0952   -4.6405    3.4168 N.4       1 <0>        -0.3709
      9 C6          1.3468   -4.2606    4.6211 C.3       1 <0>        -0.0126
     10 C7          2.1231   -4.6940    5.8665 C.3       1 <0>        -0.1512
     11 C8          2.3130   -6.2133    5.8398 C.3       1 <0>         0.1552
     12 C9          3.0288   -6.6057    4.5441 C.3       1 <0>        -0.1609
     13 C10         2.2190   -6.1015    3.3476 C.3       1 <0>        -0.0024
     14 N3          3.1208   -6.6263    6.9901 N.am      1 <0>        -0.7448
     15 C11         3.0144   -7.8801    7.4730 C.2       1 <0>         0.7063
     16 O2          2.2479   -8.6684    6.9539 O.2       1 <0>        -0.5831
     17 N4          3.7575   -8.2600    8.5312 N.am      1 <0>        -0.7404
     18 C12         3.6418   -9.6229    9.0561 C.3       1 <0>         0.1400
     19 C13         4.5858   -9.7921   10.2482 C.3       1 <0>        -0.1437
     20 C14         4.4649  -11.2154   10.7964 C.3       1 <0>         0.1300
     21 N5          5.3687  -11.3774   11.9379 N.pl3     1 <0>        -0.7522
     22 C15         5.4344  -12.6009   12.6085 C.ar      1 <0>         0.2096
     23 C16         4.6477  -13.6668   12.1908 C.ar      1 <0>        -0.1975
     24 C17         4.7154  -14.8753   12.8558 C.ar      1 <0>        -0.0733
     25 C18         5.5649  -15.0248   13.9367 C.ar      1 <0>        -0.1753
     26 C19         6.3495  -13.9657   14.3552 C.ar      1 <0>        -0.0725
     27 C20         6.2909  -12.7562   13.6911 C.ar      1 <0>        -0.1943
     28 H1          1.0039    1.9031    0.0027 H         1 <0>         0.0610
     29 H2         -0.5459    1.8868   -0.8726 H         1 <0>         0.0678
     30 H3         -0.5289    1.8773    0.9072 H         1 <0>         0.0610
     31 H4         -1.0205   -0.3814    0.0098 H         1 <0>         0.0731
     32 H5          0.5123   -0.3556   -0.8948 H         1 <0>         0.0730
     33 H6          1.7647   -0.1336    1.2338 H         1 <0>         0.0801
     34 H7          0.2319   -0.1594    2.1383 H         1 <0>         0.0801
     35 H8          0.3416   -2.4625    0.5073 H         1 <0>         0.4116
     36 H9          0.3621   -4.5312    2.2345 H         1 <0>         0.1607
     37 H10         1.8949   -4.5054    1.3299 H         1 <0>         0.1616
     38 H11         1.2097   -3.1793    4.6370 H         1 <0>         0.1524
     39 H12         0.3727   -4.7494    4.6122 H         1 <0>         0.1299
     40 H13         3.0974   -4.2055    5.8764 H         1 <0>         0.0953
     41 H14         1.5650   -4.4126    6.7595 H         1 <0>         0.1195
     42 H15         1.3402   -6.7031    5.8815 H         1 <0>         0.1064
     43 H16         4.0219   -6.1569    4.5266 H         1 <0>         0.0908
     44 H17         3.1181   -7.6908    4.4918 H         1 <0>         0.1204
     45 H18         1.2262   -6.5511    3.3660 H         1 <0>         0.1353
     46 H19         2.7257   -6.3793    2.4235 H         1 <0>         0.1362
     47 H20         3.7323   -5.9974    7.4042 H         1 <0>         0.4023
     48 H21         4.3690   -7.6311    8.9453 H         1 <0>         0.3996
     49 H22         2.6157   -9.8028    9.3767 H         1 <0>         0.0741
     50 H23         3.9094  -10.3363    8.2767 H         1 <0>         0.0737
     51 H24         5.6119   -9.6121    9.9276 H         1 <0>         0.0775
     52 H25         4.3182   -9.0786   11.0276 H         1 <0>         0.0779
     53 H26         3.4388  -11.3954   11.1170 H         1 <0>         0.0638
     54 H27         4.7325  -11.9289   10.0170 H         1 <0>         0.0635
     55 H28         5.9216  -10.6351   12.2280 H         1 <0>         0.3989
     56 H29         3.9835  -13.5505   11.3472 H         1 <0>         0.1186
     57 H30         4.1040  -15.7044   12.5316 H         1 <0>         0.1213
     58 H31         5.6154  -15.9707   14.4554 H         1 <0>         0.1197
     59 H32         7.0119  -14.0859   15.1997 H         1 <0>         0.1221
     60 H33         6.9072  -11.9309   14.0156 H         1 <0>         0.1186
     61 H34         3.0150   -4.2272    3.4506 H         1 <0>         0.4295
@<TRIPOS>BOND
     1    1    2 1
     2    1   28 1
     3    1   29 1
     4    1   30 1
     5    2    3 1
     6    2   31 1
     7    2   32 1
     8    3    4 1
     9    3   33 1
    10    3   34 1
    11    4    5 am
    12    4   35 1
    13    5    6 2
    14    5    7 1
    15    7    8 1
    16    7   36 1
    17    7   37 1
    18    8   13 1
    19    8    9 1
    20    8   61 1
    21    9   10 1
    22    9   38 1
    23    9   39 1
    24   10   11 1
    25   10   40 1
    26   10   41 1
    27   11   12 1
    28   11   14 1
    29   11   42 1
    30   12   13 1
    31   12   43 1
    32   12   44 1
    33   13   45 1
    34   13   46 1
    35   14   15 am
    36   14   47 1
    37   15   16 2
    38   15   17 am
    39   17   18 1
    40   17   48 1
    41   18   19 1
    42   18   49 1
    43   18   50 1
    44   19   20 1
    45   19   51 1
    46   19   52 1
    47   20   21 1
    48   20   53 1
    49   20   54 1
    50   21   22 1
    51   21   55 1
    52   22   27 ar
    53   22   23 ar
    54   23   24 ar
    55   23   56 1
    56   24   25 ar
    57   24   57 1
    58   25   26 ar
    59   25   58 1
    60   26   27 ar
    61   26   59 1
    62   27   60 1
@<TRIPOS>MOLECULE
ZINC08972077
   52    56     0     0     0
SMALL
USER_CHARGES
2-[(1S,3S,3aR,6aS)-7'-chloro-2',4,6-trioxo-5-[[(2S)-tetrahydrofuran-2-yl]methyl]spiro[1,2,3a,6a-tetrahydropyrrolo[3,4-c]pyrrole-3,3'-indoline]-1-yl]acetamide
@<TRIPOS>ATOM
      1 C1         -4.0117   -4.7878   -1.2032 C.ar      1 <0>        -0.1098
      2 C2         -4.0903   -3.4146   -1.0502 C.ar      1 <0>        -0.0122
      3 C3         -4.8533   -2.6662   -1.9182 C.ar      1 <0>        -0.1957
      4 C4         -5.5508   -3.2774   -2.9561 C.ar      1 <0>         0.1818
      5 C5         -5.4663   -4.6605   -3.1038 C.ar      1 <0>        -0.0539
      6 C6         -4.7004   -5.4063   -2.2302 C.ar      1 <0>        -0.0327
      7 Cl1        -6.3271   -5.4480   -4.3893 Cl        1 <0>        -0.0310
      8 N1         -6.2475   -2.3210   -3.6990 N.am      1 <0>        -0.6358
      9 C7         -6.0643   -1.0749   -3.2213 C.2       1 <0>         0.5362
     10 O1         -6.5444   -0.0523   -3.6627 O.2       1 <0>        -0.4301
     11 C8         -5.1491   -1.1980   -2.0338 C.3       1 <0>         0.0980
     12 C9         -3.8672   -0.3788   -2.2281 C.3       1 <0>        -0.1180
     13 H1         -3.6218   -0.2269   -3.2792 H         1 <0>         0.1806
     14 C10        -4.1176    0.9536   -1.4681 C.3       1 <0>        -0.1344
     15 H2         -3.9994    1.8312   -2.1036 H         1 <0>         0.1877
     16 C11        -5.5454    0.8224   -0.8973 C.3       1 <0>         0.0593
     17 H3         -6.2661    1.2915   -1.5671 H         1 <0>         0.1845
     18 C12        -5.6227    1.4553    0.4935 C.3       1 <0>        -0.1691
     19 C13        -7.0487    1.4262    0.9801 C.2       1 <0>         0.5147
     20 O2         -7.9176    0.9465    0.2831 O.2       1 <0>        -0.5519
     21 N2         -7.3584    1.9332    2.1898 N.am      1 <0>        -0.8326
     22 C14        -3.1124    0.9065   -0.3401 C.2       1 <0>         0.5211
     23 O3         -2.9755    1.7575    0.5122 O.2       1 <0>        -0.4191
     24 N3         -2.3954   -0.2196   -0.4305 N.am      1 <0>        -0.5643
     25 C15        -2.7358   -1.0144   -1.4516 C.2       1 <0>         0.5177
     26 O4         -2.2178   -2.0787   -1.7136 O.2       1 <0>        -0.4201
     27 C16        -1.3288   -0.5576    0.5152 C.3       1 <0>         0.1035
     28 C17         0.0021   -0.0041    0.0020 C.3       1 <0>         0.0545
     29 H4          0.2045   -0.3753   -1.0026 H         1 <0>         0.0763
     30 C18         1.1520   -0.3885    0.9592 C.3       1 <0>        -0.1463
     31 C19         2.0729    0.8522    0.9571 C.3       1 <0>        -0.1557
     32 C20         1.3704    1.8394   -0.0011 C.3       1 <0>         0.0451
     33 O5         -0.0175    1.4400    0.0100 O.3       1 <0>        -0.3663
     34 H5         -3.4134   -5.3749   -0.5221 H         1 <0>         0.1572
     35 H6         -3.5531   -2.9295   -0.2486 H         1 <0>         0.1353
     36 H7         -4.6391   -6.4780   -2.3493 H         1 <0>         0.1601
     37 H8         -6.7993   -2.5300   -4.4689 H         1 <0>         0.4406
     38 H9         -4.9919    0.8947    1.1834 H         1 <0>         0.1209
     39 H10        -5.2772    2.4878    0.4426 H         1 <0>         0.1631
     40 H11        -6.6635    2.3168    2.7473 H         1 <0>         0.4126
     41 H12        -8.2763    1.9144    2.5030 H         1 <0>         0.4171
     42 H13        -1.2586   -1.6411    0.6116 H         1 <0>         0.1166
     43 H14        -1.5534   -0.1200    1.4879 H         1 <0>         0.1137
     44 H15         0.7676   -0.5771    1.9616 H         1 <0>         0.0814
     45 H16         1.6846   -1.2626    0.5847 H         1 <0>         0.0852
     46 H17         2.1438    1.2770    1.9584 H         1 <0>         0.0812
     47 H18         3.0622    0.5929    0.5803 H         1 <0>         0.0829
     48 H19         1.7827    1.7510   -1.0063 H         1 <0>         0.0624
     49 H20         1.4741    2.8613    0.3638 H         1 <0>         0.0980
     50 N4         -5.7752   -0.6250   -0.8402 N.4       1 <0>        -0.4968
     51 H21        -5.3480   -1.0180    0.0067 H         1 <0>         0.4318
     52 H22        -6.7826   -0.8236   -0.8391 H         1 <0>         0.4547
@<TRIPOS>BOND
     1    1    6 ar
     2    1    2 ar
     3    1   34 1
     4    2    3 ar
     5    2   35 1
     6    3   11 1
     7    3    4 ar
     8    4    5 ar
     9    4    8 1
    10    5    6 ar
    11    5    7 1
    12    6   36 1
    13    8    9 am
    14    8   37 1
    15    9   10 2
    16    9   11 1
    17   11   12 1
    18   11   50 1
    19   12   13 1
    20   12   25 1
    21   12   14 1
    22   14   15 1
    23   14   16 1
    24   14   22 1
    25   16   17 1
    26   16   18 1
    27   16   50 1
    28   18   19 1
    29   18   38 1
    30   18   39 1
    31   19   20 2
    32   19   21 am
    33   21   40 1
    34   21   41 1
    35   22   23 2
    36   22   24 am
    37   24   25 am
    38   24   27 1
    39   25   26 2
    40   27   28 1
    41   27   42 1
    42   27   43 1
    43   28   29 1
    44   28   33 1
    45   28   30 1
    46   30   31 1
    47   30   44 1
    48   30   45 1
    49   31   32 1
    50   31   46 1
    51   31   47 1
    52   32   33 1
    53   32   48 1
    54   32   49 1
    55   50   51 1
    56   50   52 1
@<TRIPOS>MOLECULE
ZINC20463887
   58    61     0     0     0
SMALL
USER_CHARGES

@<TRIPOS>ATOM
      1 C1         -0.2041    1.6806   -0.3209 C.ar      1 <0>        -0.0522
      2 C2          0.9795    2.3930   -0.3307 C.ar      1 <0>        -0.1181
      3 C3          2.1798    1.7452   -0.0772 C.ar      1 <0>         0.1524
      4 C4          2.1881    0.3830    0.1856 C.ar      1 <0>        -0.1910
      5 C5          1.0019   -0.3249    0.1943 C.ar      1 <0>        -0.0508
      6 C6         -0.1931    0.3231   -0.0587 C.ar      1 <0>        -0.1944
      7 C7         -1.4857   -0.4515   -0.0482 C.3       1 <0>         0.0424
      8 N1         -1.7609   -0.9632   -1.3974 N.4       1 <0>        -0.5136
      9 C8         -3.0210   -1.7183   -1.3871 C.3       1 <0>        -0.0607
     10 H1         -3.7403   -1.2212   -0.7364 H         1 <0>         0.1641
     11 C9         -2.7635   -3.1457   -0.8771 C.3       1 <0>         0.0352
     12 H2         -2.5167   -3.1727    0.1842 H         1 <0>         0.1467
     13 C10        -4.0049   -4.0006   -1.2239 C.3       1 <0>         0.0330
     14 O1         -3.7303   -4.5409   -2.5290 O.3       1 <0>        -0.3157
     15 C11        -2.4541   -4.0169   -2.9399 C.3       1 <0>         0.2265
     16 H3         -1.9114   -4.7313   -3.5591 H         1 <0>         0.1472
     17 O2         -1.7229   -3.7159   -1.7093 O.3       1 <0>        -0.3916
     18 C12        -2.6954   -2.6970   -3.6886 C.3       1 <0>        -0.0698
     19 H4         -3.1717   -2.9026   -4.6472 H         1 <0>         0.1627
     20 C13        -3.5843   -1.7992   -2.8105 C.3       1 <0>         0.1469
     21 H5         -3.6394   -0.7979   -3.2376 H         1 <0>         0.0326
     22 O3         -4.8914   -2.3757   -2.7742 O.3       1 <0>        -0.7613
     23 N2         -1.4129   -2.0163   -3.9121 N.4       1 <0>        -0.3841
     24 C14        -1.6595   -0.6854   -4.4799 C.3       1 <0>        -0.0279
     25 C15        -0.3322    0.0592   -4.6393 C.3       1 <0>        -0.1332
     26 C16         0.5833   -0.7352   -5.5753 C.3       1 <0>        -0.1245
     27 C17         0.7734   -2.1461   -5.0110 C.3       1 <0>        -0.1410
     28 C18        -0.5948   -2.8090   -4.8378 C.3       1 <0>        -0.0152
     29 C19         1.9207   -0.0479   -5.6750 C.2       1 <0>         0.5212
     30 O4          2.1234    0.9768   -5.0586 O.2       1 <0>        -0.5294
     31 N3          2.8916   -0.5719   -6.4492 N.am      1 <0>        -0.8473
     32 O5          3.3455    2.4437   -0.0868 O.3       1 <0>        -0.3041
     33 C20         4.5427    1.7116    0.1826 C.3       1 <0>         0.6053
     34 F1          4.6997    0.7052   -0.7764 F         1 <0>        -0.1625
     35 F2          5.6402    2.5778    0.1335 F         1 <0>        -0.1193
     36 F3          4.4605    1.1349    1.4546 F         1 <0>        -0.1597
     37 H6         -1.1392    2.1853   -0.5137 H         1 <0>         0.1497
     38 H7          0.9704    3.4533   -0.5359 H         1 <0>         0.1549
     39 H8          3.1213   -0.1236    0.3829 H         1 <0>         0.1465
     40 H9          1.0079   -1.3853    0.3988 H         1 <0>         0.1426
     41 H10        -1.4031   -1.2867    0.6473 H         1 <0>         0.1422
     42 H11        -2.2990    0.2031    0.2650 H         1 <0>         0.1495
     43 H12        -1.8373   -0.1901   -2.0412 H         1 <0>         0.4152
     44 H13        -4.1258   -4.8050   -0.4984 H         1 <0>         0.0799
     45 H14        -4.8986   -3.3771   -1.2521 H         1 <0>         0.1578
     46 H15        -2.1366   -0.7893   -5.4544 H         1 <0>         0.1515
     47 H16        -2.3137   -0.1224   -3.8142 H         1 <0>         0.1336
     48 H17        -0.5172    1.0464   -5.0626 H         1 <0>         0.1299
     49 H18         0.1457    0.1638   -3.6652 H         1 <0>         0.0877
     50 H19         0.1289   -0.7963   -6.5641 H         1 <0>         0.1242
     51 H20         1.3787   -2.7352   -5.7000 H         1 <0>         0.1223
     52 H21         1.2742   -2.0872   -4.0446 H         1 <0>         0.0917
     53 H22        -0.4631   -3.8138   -4.4364 H         1 <0>         0.1362
     54 H23        -1.0946   -2.8676   -5.8047 H         1 <0>         0.1427
     55 H24         2.7295   -1.3914   -6.9421 H         1 <0>         0.4045
     56 H25         3.7524   -0.1295   -6.5134 H         1 <0>         0.4127
     57 H26        -0.9267   -1.9201   -3.0332 H         1 <0>         0.3792
     58 H27        -1.0081   -1.5692   -1.6874 H         1 <0>         0.3970
@<TRIPOS>BOND
     1    1    6 ar
     2    1    2 ar
     3    1   37 1
     4    2    3 ar
     5    2   38 1
     6    3    4 ar
     7    3   32 1
     8    4    5 ar
     9    4   39 1
    10    5    6 ar
    11    5   40 1
    12    6    7 1
    13    7    8 1
    14    7   41 1
    15    7   42 1
    16    8    9 1
    17    8   43 1
    18    8   58 1
    19    9   10 1
    20    9   20 1
    21    9   11 1
    22   11   12 1
    23   11   17 1
    24   11   13 1
    25   13   14 1
    26   13   44 1
    27   13   45 1
    28   14   15 1
    29   15   16 1
    30   15   17 1
    31   15   18 1
    32   18   19 1
    33   18   20 1
    34   18   23 1
    35   20   21 1
    36   20   22 1
    37   23   28 1
    38   23   24 1
    39   23   57 1
    40   24   25 1
    41   24   46 1
    42   24   47 1
    43   25   26 1
    44   25   48 1
    45   25   49 1
    46   26   27 1
    47   26   29 1
    48   26   50 1
    49   27   28 1
    50   27   51 1
    51   27   52 1
    52   28   53 1
    53   28   54 1
    54   29   30 2
    55   29   31 am
    56   31   55 1
    57   31   56 1
    58   32   33 1
    59   33   34 1
    60   33   35 1
    61   33   36 1
@<TRIPOS>MOLECULE
ZINC46943631
   54    57     0     0     0
SMALL
USER_CHARGES

@<TRIPOS>ATOM
      1 C1         -0.1562    1.4540   -0.1334 C.ar      1 <0>        -0.1412
      2 C2          1.0216    2.1889   -0.1438 C.ar      1 <0>        -0.0986
      3 C3          2.2449    1.5556   -0.1387 C.ar      1 <0>        -0.1260
      4 C4          2.3034    0.1657   -0.1224 C.ar      1 <0>         0.0951
      5 C5          1.1071   -0.5743   -0.1114 C.ar      1 <0>        -0.0895
      6 C6         -0.1220    0.0883   -0.1174 C.ar      1 <0>        -0.0751
      7 C7          1.5036   -1.9844   -0.0956 C.2       1 <0>        -0.1729
      8 C8          2.8456   -2.0147   -0.0978 C.2       1 <0>         0.0784
      9 N1          3.3410   -0.7393   -0.1137 N.pl3     1 <0>        -0.5911
     10 H1          4.2828   -0.5074   -0.1180 H         1 <0>         0.4191
     11 C9          0.5800   -3.1751   -0.0794 C.3       1 <0>        -0.0467
     12 C10         0.1711   -3.5129   -1.4899 C.2       1 <0>         0.5125
     13 O1          0.5885   -2.8519   -2.4171 O.2       1 <0>        -0.5072
     14 N2         -0.6585   -4.5497   -1.7211 N.am      1 <0>        -0.5403
     15 N3         -1.0386   -4.8637   -3.0325 N.am      1 <0>        -0.5277
     16 C11        -1.8682   -5.9004   -3.2637 C.2       1 <0>         0.7144
     17 O2         -2.1981   -6.1730   -4.4017 O.2       1 <0>        -0.5679
     18 N4         -2.3321   -6.6351   -2.2333 N.am      1 <0>        -0.7431
     19 C12        -3.2338   -7.7620   -2.4846 C.3       1 <0>         0.1626
     20 C13        -4.6735   -7.2516   -2.5798 C.3       1 <0>        -0.1522
     21 C14        -5.6093   -8.4275   -2.8769 C.3       1 <0>         0.1024
     22 N5         -5.4032   -9.4652   -1.8574 N.pl3     1 <0>        -0.5888
     23 C15        -4.0410   -9.9625   -1.6209 C.3       1 <0>         0.1143
     24 C16        -3.1228   -8.7694   -1.3379 C.3       1 <0>        -0.1487
     25 C17        -6.4764   -9.9666   -1.1302 C.ar      1 <0>         0.4453
     26 C18        -6.2808  -11.0345   -0.2599 C.ar      1 <0>        -0.2010
     27 C19        -7.3573  -11.5234    0.4574 C.ar      1 <0>         0.0378
     28 C20        -8.5984  -10.9259    0.2799 C.ar      1 <0>        -0.1716
     29 C21        -8.7206   -9.8697   -0.6002 C.ar      1 <0>         0.1470
     30 N6         -7.6746   -9.4204   -1.2677 N.ar      1 <0>        -0.5079
     31 H2         -1.1071    1.9660   -0.1334 H         1 <0>         0.1224
     32 H3          0.9783    3.2679   -0.1564 H         1 <0>         0.1270
     33 H4          3.1555    2.1362   -0.1476 H         1 <0>         0.1218
     34 H5         -1.0423   -0.4769   -0.1090 H         1 <0>         0.1154
     35 H6          3.4455   -2.9128   -0.0887 H         1 <0>         0.1701
     36 H7          1.0943   -4.0278    0.3639 H         1 <0>         0.1073
     37 H8         -0.3065   -2.9393    0.5093 H         1 <0>         0.1064
     38 H9         -0.9923   -5.0784   -0.9796 H         1 <0>         0.4158
     39 H10        -0.7048   -4.3350   -3.7740 H         1 <0>         0.4470
     40 H11        -2.0689   -6.4176   -1.3254 H         1 <0>         0.3943
     41 H12        -2.9577   -8.2461   -3.4213 H         1 <0>         0.1022
     42 H13        -4.9588   -6.7893   -1.6348 H         1 <0>         0.0767
     43 H14        -4.7467   -6.5168   -3.3815 H         1 <0>         0.1016
     44 H15        -6.6444   -8.0871   -2.8478 H         1 <0>         0.0802
     45 H16        -5.3838   -8.8339   -3.8628 H         1 <0>         0.1070
     46 H17        -4.0413  -10.6349   -0.7631 H         1 <0>         0.1076
     47 H18        -3.6876  -10.4941   -2.5044 H         1 <0>         0.1018
     48 H19        -2.0922   -9.1149   -1.2557 H         1 <0>         0.1040
     49 H20        -3.4227   -8.2928   -0.4046 H         1 <0>         0.0821
     50 H21        -5.3016  -11.4758   -0.1465 H         1 <0>         0.1790
     51 H22        -7.2358  -12.3515    1.1400 H         1 <0>         0.1742
     52 H23        -9.4593  -11.2842    0.8249 H         1 <0>         0.1804
     53 H24        -9.6840   -9.4024   -0.7415 H         1 <0>         0.2058
     54 H25        -7.7871   -8.6741   -1.8771 H         1 <0>         0.4382
@<TRIPOS>BOND
     1    1    6 ar
     2    1    2 ar
     3    1   31 1
     4    2    3 ar
     5    2   32 1
     6    3    4 ar
     7    3   33 1
     8    4    9 1
     9    4    5 ar
    10    5    6 ar
    11    5    7 1
    12    6   34 1
    13    7    8 2
    14    7   11 1
    15    8    9 1
    16    8   35 1
    17    9   10 1
    18   11   12 1
    19   11   36 1
    20   11   37 1
    21   12   13 2
    22   12   14 am
    23   14   15 1
    24   14   38 1
    25   15   16 am
    26   15   39 1
    27   16   17 2
    28   16   18 am
    29   18   19 1
    30   18   40 1
    31   19   24 1
    32   19   20 1
    33   19   41 1
    34   20   21 1
    35   20   42 1
    36   20   43 1
    37   21   22 1
    38   21   44 1
    39   21   45 1
    40   22   23 1
    41   22   25 1
    42   23   24 1
    43   23   46 1
    44   23   47 1
    45   24   48 1
    46   24   49 1
    47   25   30 ar
    48   25   26 ar
    49   26   27 ar
    50   26   50 1
    51   27   28 ar
    52   27   51 1
    53   28   29 ar
    54   28   52 1
    55   29   30 ar
    56   29   53 1
    57   30   54 1
@<TRIPOS>MOLECULE
ZINC39781304
   53    56     0     0     0
SMALL
USER_CHARGES

@<TRIPOS>ATOM
      1 C1          0.7306    2.5182    0.7675 C.3       1 <0>        -0.1863
      2 C2          0.7182    0.9980    0.9401 C.3       1 <0>         0.1134
      3 H1         -0.3041    0.6573    1.1041 H         1 <0>         0.1326
      4 C3          1.2751    0.3455   -0.2963 C.2       1 <0>        -0.0629
      5 C4          2.5794    0.0332   -0.3904 C.2       1 <0>        -0.2175
      6 C5          2.8228   -0.5877   -1.7286 C.3       1 <0>         0.3506
      7 H2          3.4594   -1.4664   -1.6256 H         1 <0>         0.1431
      8 O1          1.5213   -0.9700   -2.2252 O.3       1 <0>        -0.3408
      9 C6          0.6048   -0.0657   -1.5713 C.3       1 <0>         0.0960
     10 H3         -0.3348   -0.5741   -1.3550 H         1 <0>         0.1257
     11 C7          0.3523    1.1587   -2.4533 C.3       1 <0>        -0.1617
     12 N1          3.4450    0.3840   -2.6313 N.am      1 <0>        -0.7198
     13 C8          4.3536   -0.0250   -3.5388 C.2       1 <0>         0.5382
     14 O2          4.6562   -1.1975   -3.6081 O.2       1 <0>        -0.4972
     15 C9          4.9937    0.9745   -4.4675 C.3       1 <0>        -0.1149
     16 S1          6.1625    0.1213   -5.5613 S.3       1 <0>        -0.1754
     17 C10         6.8373    1.4458   -6.6011 C.3       1 <0>         0.3788
     18 H4          7.5716    1.0451   -7.3000 H         1 <0>         0.1304
     19 N2          7.4392    2.5005   -5.7679 N.pl3     1 <0>        -0.6120
     20 N3          6.7202    3.6716   -6.0351 N.2       1 <0>        -0.2223
     21 C11         5.7838    3.4655   -6.9017 C.2       1 <0>         0.2596
     22 N4          5.7562    2.1343   -7.3264 N.pl3     1 <0>        -0.6377
     23 C12         4.8359    1.5398   -8.2989 C.3       1 <0>         0.1051
     24 C13         4.8567    4.5095   -7.3858 C.ar      1 <0>         0.1249
     25 C14         3.6770    4.1685   -8.0591 C.ar      1 <0>        -0.1375
     26 C15         2.8407    5.1751   -8.4936 C.ar      1 <0>         0.1448
     27 N5          3.1398    6.4431   -8.2828 N.ar      1 <0>        -0.4492
     28 C16         4.2408    6.8080   -7.6533 C.ar      1 <0>         0.1444
     29 C17         5.1303    5.8672   -7.1789 C.ar      1 <0>        -0.1052
     30 C18         3.4854    0.3114    0.7353 C.2       1 <0>         0.5894
     31 O3          4.6909    0.1817    0.6414 O.2       1 <0>        -0.5090
     32 N6          2.8925    0.7220    1.8839 N.am      1 <0>        -0.5654
     33 N7          1.5515    0.6265    2.0911 N.3       1 <0>        -0.4516
     34 H5          1.7536    2.8569    0.6037 H         1 <0>         0.0580
     35 H6          0.1156    2.7915   -0.0899 H         1 <0>         0.0746
     36 H7          0.3314    2.9891    1.6658 H         1 <0>         0.0769
     37 H8          1.3019    1.6394   -2.6882 H         1 <0>         0.0543
     38 H9         -0.1353    0.8469   -3.3769 H         1 <0>         0.0778
     39 H10        -0.2897    1.8622   -1.9232 H         1 <0>         0.0759
     40 H11         3.2030    1.3217   -2.5759 H         1 <0>         0.3950
     41 H12         4.2229    1.4592   -5.0666 H         1 <0>         0.1028
     42 H13         5.5251    1.7253   -3.8827 H         1 <0>         0.1098
     43 H14         8.1852    2.4031   -5.1555 H         1 <0>         0.4635
     44 H15         3.9121    1.2530   -7.7965 H         1 <0>         0.0682
     45 H16         4.6140    2.2665   -9.0804 H         1 <0>         0.0766
     46 H17         5.2969    0.6577   -8.7432 H         1 <0>         0.0964
     47 H18         3.4263    3.1330   -8.2357 H         1 <0>         0.1926
     48 H19         1.9287    4.9224   -9.0138 H         1 <0>         0.2156
     49 H20         4.4454    7.8578   -7.5033 H         1 <0>         0.2164
     50 H21         6.0269    6.1730   -6.6603 H         1 <0>         0.1930
     51 H22         3.4462    1.0984    2.5858 H         1 <0>         0.4124
     52 H23         1.2732    1.1338    2.9177 H         1 <0>         0.3754
     53 H24         2.5314    7.1284   -8.6009 H         1 <0>         0.4543
@<TRIPOS>BOND
     1    1    2 1
     2    1   34 1
     3    1   35 1
     4    1   36 1
     5    2    3 1
     6    2   33 1
     7    2    4 1
     8    4    9 1
     9    4    5 2
    10    5    6 1
    11    5   30 1
    12    6    7 1
    13    6    8 1
    14    6   12 1
    15    8    9 1
    16    9   10 1
    17    9   11 1
    18   11   37 1
    19   11   38 1
    20   11   39 1
    21   12   13 am
    22   12   40 1
    23   13   14 2
    24   13   15 1
    25   15   16 1
    26   15   41 1
    27   15   42 1
    28   16   17 1
    29   17   18 1
    30   17   22 1
    31   17   19 1
    32   19   20 1
    33   19   43 1
    34   20   21 2
    35   21   22 1
    36   21   24 1
    37   22   23 1
    38   23   44 1
    39   23   45 1
    40   23   46 1
    41   24   29 ar
    42   24   25 ar
    43   25   26 ar
    44   25   47 1
    45   26   27 ar
    46   26   48 1
    47   27   28 ar
    48   27   53 1
    49   28   29 ar
    50   28   49 1
    51   29   50 1
    52   30   31 2
    53   30   32 am
    54   32   33 1
    55   32   51 1
    56   33   52 1
