@<TRIPOS>MOLECULE
1W7X-413
 70 73 0 0 0
SMALL
SF_CHARGES


@<TRIPOS>ATOM
1    O         9.6510   39.6130   34.6010  O.2        1 SUBUNIT     -0.5164
2    C         9.1900   40.0340   33.5440  C.2        1 SUBUNIT      0.6491
3    N         7.9250   40.4530   33.4550  N.am       1 SUBUNIT     -0.5682
4    C         7.0610   40.4800   34.6210  C.3        1 SUBUNIT      0.2198
5    C         7.5880   41.5320   35.5400  C.2        1 SUBUNIT     -0.0348
6    C         8.2140   42.6780   35.0240  C.2        1 SUBUNIT     -0.0931
7    C         8.7230   43.6650   35.8700  C.2        1 SUBUNIT     -0.0901
8    C         8.5870   43.5100   37.2490  C.2        1 SUBUNIT     -0.0901
9    C         7.9750   42.3680   37.7780  C.2        1 SUBUNIT     -0.0901
10   C         7.4770   41.3760   36.9210  C.2        1 SUBUNIT     -0.0931
11   C         5.6730   40.9080   34.2600  C.2        1 SUBUNIT      0.7515
12   O         5.4660   41.3040   33.0920  O.co2      1 SUBUNIT     -0.8726
13   O         4.7950   40.8510   35.1530  O.co2      1 SUBUNIT     -0.8726
14   C        10.0100   40.1250   32.2890  C.3        1 SUBUNIT      0.2176
15   N        11.2010   39.2870   32.3880  N.pl3      1 SUBUNIT     -0.5535
16   C        11.9270   38.8260   31.3310  C.2        1 SUBUNIT      0.1254
17   C        11.5210   39.0270   30.0090  C.2        1 SUBUNIT     -0.1050
18   C        12.2880   38.5500   28.9610  C.2        1 SUBUNIT     -0.0979
19   C        13.1440   38.1660   31.5700  C.2        1 SUBUNIT     -0.1050
20   C        13.9330   37.6840   30.5240  C.2        1 SUBUNIT     -0.0979
21   C        13.5020   37.8900   29.2060  C.2        1 SUBUNIT     -0.0190
22   C        14.2900   37.4000   28.0320  C.2        1 SUBUNIT      0.3817
23   N        15.4680   36.7800   28.1850  N.pl3      1 SUBUNIT     -0.6288
24   N        13.7730   37.6040   26.8100  N.pl3      1 SUBUNIT     -0.6288
25   C        10.3530   41.5620   32.0720  C.2        1 SUBUNIT     -0.0518
26   C        11.2400   42.2450   32.9100  C.2        1 SUBUNIT     -0.1192
27   C        11.5280   43.5900   32.7070  C.2        1 SUBUNIT      0.1372
28   O        12.4170   44.2590   33.5190  O.3        1 SUBUNIT     -0.3871
29   C        12.9060   43.6620   34.7290  C.3        1 SUBUNIT      0.1547
30   C        10.9350   44.2740   31.6400  C.2        1 SUBUNIT      0.1345
31   C        10.0450   43.5980   30.8000  C.2        1 SUBUNIT     -0.1202
32   C         9.7470   42.2550   31.0060  C.2        1 SUBUNIT     -0.1086
33   O        11.2460   45.6070   31.4430  O.3        1 SUBUNIT     -0.3965
34   C        10.4420   46.4910   30.6590  C.3        1 SUBUNIT      0.2249
35   C        10.7150   46.3240   29.1780  C.2        1 SUBUNIT     -0.0513
36   C        11.7710   45.5420   28.7070  C.2        1 SUBUNIT     -0.1079
37   C        11.9920   45.3980   27.3370  C.2        1 SUBUNIT     -0.1050
38   C        11.1680   46.0450   26.4160  C.2        1 SUBUNIT     -0.1050
39   C        10.1120   46.8290   26.8800  C.2        1 SUBUNIT     -0.1050
40   C         9.8880   46.9780   28.2510  C.2        1 SUBUNIT     -0.1079
41   H         7.6030   40.7469   32.5462  H          1 SUBUNIT      0.3269
42   H         7.0511   39.4732   35.0515  H          1 SUBUNIT      0.0283
43   H         8.3044   42.8003   33.9588  H          1 SUBUNIT      0.1140
44   H         9.2131   44.5328   35.4645  H          1 SUBUNIT      0.1139
45   H         8.9559   44.2750   37.9096  H          1 SUBUNIT      0.1139
46   H         7.8869   42.2519   38.8441  H          1 SUBUNIT      0.1139
47   H         7.0097   40.4952   37.3255  H          1 SUBUNIT      0.1140
48   H         9.4564   39.7438   31.4246  H          1 SUBUNIT      0.0338
49   H        11.5405   39.0089   33.2954  H          1 SUBUNIT      0.3328
50   H        10.6073   39.5552   29.7996  H          1 SUBUNIT      0.1195
51   H        11.9441   38.6900   27.9511  H          1 SUBUNIT      0.1203
52   H        13.4790   38.0270   32.5830  H          1 SUBUNIT      0.1195
53   H        14.8533   37.1650   30.7276  H          1 SUBUNIT      0.1203
54   H        15.9779   36.4600   27.3765  H          1 SUBUNIT      0.3326
55   H        14.2720   37.2893   25.9927  H          1 SUBUNIT      0.3326
56   H        12.8858   38.0718   26.7098  H          1 SUBUNIT      0.3326
57   H        11.7089   41.7237   33.7262  H          1 SUBUNIT      0.1232
58   H        12.0833   43.4360   35.4154  H          1 SUBUNIT      0.0484
59   H        13.6002   44.3334   35.2452  H          1 SUBUNIT      0.0484
60   H        13.4357   42.7269   34.5190  H          1 SUBUNIT      0.0484
61   H         9.5826   44.1218   29.9817  H          1 SUBUNIT      0.1246
62   H         9.0562   41.7538   30.3508  H          1 SUBUNIT      0.1248
63   H         9.3896   46.2716   30.8671  H          1 SUBUNIT      0.0435
64   H        10.6680   47.5186   30.9622  H          1 SUBUNIT      0.0435
65   H        12.4206   45.0457   29.4066  H          1 SUBUNIT      0.1238
66   H        12.8036   44.7836   26.9883  H          1 SUBUNIT      0.1240
67   H        11.3450   45.9405   25.3598  H          1 SUBUNIT      0.1240
68   H         9.4652   47.3226   26.1759  H          1 SUBUNIT      0.1240
69   H         9.0779   47.5969   28.5952  H          1 SUBUNIT      0.1238
70   H        15.9467   36.5753   29.0482  H          1 SUBUNIT      0.3326
@<TRIPOS>BOND
     1    1    2 2
     2    2    3 1
     3    2   14 1
     4    3    4 1
     5    4    5 1
     6    4   11 1
     7    5    6 2
     8    5   10 1
     9    6    7 1
    10    7    8 2
    11    8    9 1
    12    9   10 2
    13   11   12 2
    14   11   13 1
    15   14   15 1
    16   14   25 1
    17   15   16 1
    18   16   17 2
    19   16   19 1
    20   17   18 1
    21   18   21 2
    22   19   20 2
    23   20   21 1
    24   21   22 1
    25   22   23 2
    26   22   24 1
    27   25   26 2
    28   25   32 1
    29   26   27 1
    30   27   28 1
    31   27   30 2
    32   28   29 1
    33   30   31 1
    34   30   33 1
    35   31   32 2
    36   33   34 1
    37   34   35 1
    38   35   36 2
    39   35   40 1
    40   36   37 1
    41   37   38 2
    42   38   39 1
    43   39   40 2
    44    3   41 1
    45    4   42 1
    46    6   43 1
    47    7   44 1
    48    8   45 1
    49    9   46 1
    50   10   47 1
    51   14   48 1
    52   15   49 1
    53   17   50 1
    54   18   51 1
    55   19   52 1
    56   20   53 1
    57   23   54 1
    58   24   55 1
    59   24   56 1
    60   26   57 1
    61   29   58 1
    62   29   59 1
    63   29   60 1
    64   31   61 1
    65   32   62 1
    66   34   63 1
    67   34   64 1
    68   36   65 1
    69   37   66 1
    70   38   67 1
    71   39   68 1
    72   40   69 1
    73   23   70 1
