@<TRIPOS>MOLECULE
CHEMBL203094
   55    59     0     0     0
SMALL
USER_CHARGES

@<TRIPOS>ATOM
      1 C1          0.0238    1.4018    0.0400 C.3       1 <0>         0.0252
      2 O1          0.0677   -0.0265    0.0387 O.3       1 <0>        -0.3100
      3 C2          0.6666   -0.6239   -1.0236 C.ar      1 <0>         0.1787
      4 C3          0.7771   -2.0069   -1.0776 C.ar      1 <0>        -0.1787
      5 C4          1.3436   -2.6046   -2.1794 C.ar      1 <0>         0.0018
      6 C5          1.7875   -1.8477   -3.2583 C.ar      1 <0>        -0.1647
      7 C6          1.7854   -0.4707   -3.1497 C.ar      1 <0>         0.1910
      8 C7          1.2016    0.1421   -2.0446 C.ar      1 <0>        -0.3051
      9 O2          2.4004    0.3233   -4.0669 O.3       1 <0>        -0.3085
     10 C8          2.3333    1.7345   -3.8524 C.3       1 <0>         0.0237
     11 C9          2.2098   -2.5834   -4.4994 C.3       1 <0>         0.2048
     12 C10         2.1659   -1.6997   -5.7345 C.3       1 <0>         0.1407
     13 C11         0.8366   -0.9806   -5.9123 C.3       1 <0>        -0.1175
     14 C12        -0.2918   -1.9456   -6.2676 C.3       1 <0>        -0.1324
     15 C13         0.0812   -2.7459   -7.5205 C.3       1 <0>        -0.1220
     16 C14         1.3595   -3.5451   -7.1934 C.3       1 <0>         0.0950
     17 N1          2.4149   -2.5491   -6.9203 N.am      1 <0>        -0.5910
     18 C15         3.5178   -2.4206   -7.6842 C.2       1 <0>         0.4928
     19 O3          4.3085   -1.5264   -7.4631 O.2       1 <0>        -0.4855
     20 C16         3.7667   -3.3766   -8.8009 C.2       1 <0>         0.4349
     21 O4          2.9223   -4.2007   -9.0954 O.2       1 <0>        -0.4078
     22 C17         4.9854   -3.3251   -9.5179 C.2       1 <0>        -0.1212
     23 C18         5.3457   -4.1432  -10.5751 C.2       1 <0>        -0.0827
     24 C19         6.6246   -3.7386  -10.9729 C.2       1 <0>        -0.2369
     25 C20         6.9911   -2.7139  -10.1654 C.2       1 <0>         0.0281
     26 O5          6.0029   -2.4655   -9.2977 O.3       1 <0>        -0.1280
     27 C21         1.0925   -4.2782   -5.9052 C.2       1 <0>         0.5127
     28 O6          0.5276   -5.3506   -5.9613 O.2       1 <0>        -0.5314
     29 N2          1.4443   -3.8116   -4.6904 N.am      1 <0>        -0.5990
     30 C22         1.0094   -4.6354   -3.5533 C.3       1 <0>         0.1185
     31 C23         1.5364   -4.0978   -2.2313 C.3       1 <0>        -0.0932
     32 H1          1.0396    1.7966    0.0163 H         1 <0>         0.0569
     33 H2         -0.5217    1.7494   -0.8373 H         1 <0>         0.0568
     34 H3         -0.4799    1.7490    0.9422 H         1 <0>         0.1044
     35 H4          0.4191   -2.6137   -0.2580 H         1 <0>         0.1380
     36 H5          1.1623    1.2204   -1.9902 H         1 <0>         0.1400
     37 H6          2.8624    2.2495   -4.6542 H         1 <0>         0.1055
     38 H7          1.2904    2.0514   -3.8430 H         1 <0>         0.0567
     39 H8          2.7959    1.9791   -2.8962 H         1 <0>         0.0578
     40 H9          3.2591   -2.8817   -4.3546 H         1 <0>         0.0768
     41 H10         2.9769   -0.9682   -5.6836 H         1 <0>         0.1326
     42 H11         0.5639   -0.4502   -5.0013 H         1 <0>         0.0822
     43 H12         0.9367   -0.2467   -6.7190 H         1 <0>         0.0719
     44 H13        -0.4722   -2.6212   -5.4339 H         1 <0>         0.0688
     45 H14        -1.2011   -1.3734   -6.4643 H         1 <0>         0.0730
     46 H15        -0.7283   -3.4310   -7.7729 H         1 <0>         0.0888
     47 H16         0.2685   -2.0677   -8.3515 H         1 <0>         0.0839
     48 H17         1.6320   -4.2229   -8.0003 H         1 <0>         0.1799
     49 H18         4.7558   -4.9379  -11.0073 H         1 <0>         0.1674
     50 H19         7.2107   -4.1641  -11.7741 H         1 <0>         0.1637
     51 H20         7.9287   -2.1803  -10.2168 H         1 <0>         0.2164
     52 H21        -0.0805   -4.6542   -3.5227 H         1 <0>         0.0727
     53 H22         1.3747   -5.6546   -3.6932 H         1 <0>         0.0827
     54 H23         2.5992   -4.3265   -2.1407 H         1 <0>         0.0914
     55 H24         0.9981   -4.5621   -1.4044 H         1 <0>         0.0994
@<TRIPOS>BOND
     1    1    2 1
     2    1   32 1
     3    1   33 1
     4    1   34 1
     5    2    3 1
     6    3    8 ar
     7    3    4 ar
     8    4    5 ar
     9    4   35 1
    10    5   31 1
    11    5    6 ar
    12    6    7 ar
    13    6   11 1
    14    7    8 ar
    15    7    9 1
    16    8   36 1
    17    9   10 1
    18   10   37 1
    19   10   38 1
    20   10   39 1
    21   11   29 1
    22   11   12 1
    23   11   40 1
    24   12   17 1
    25   12   13 1
    26   12   41 1
    27   13   14 1
    28   13   42 1
    29   13   43 1
    30   14   15 1
    31   14   44 1
    32   14   45 1
    33   15   16 1
    34   15   46 1
    35   15   47 1
    36   16   17 1
    37   16   27 1
    38   16   48 1
    39   17   18 am
    40   18   19 2
    41   18   20 1
    42   20   21 2
    43   20   22 1
    44   22   26 1
    45   22   23 2
    46   23   24 1
    47   23   49 1
    48   24   25 2
    49   24   50 1
    50   25   26 1
    51   25   51 1
    52   27   28 2
    53   27   29 am
    54   29   30 1
    55   30   31 1
    56   30   52 1
    57   30   53 1
    58   31   54 1
    59   31   55 1
@<TRIPOS>MOLECULE
CHEMBL203094__1
   55    59     0     0     0
SMALL
USER_CHARGES

@<TRIPOS>ATOM
      1 C1          0.0437    1.5212   -0.0377 C.3       1 <0>         0.0258
      2 O1          0.0576    0.0923   -0.0253 O.3       1 <0>        -0.3120
      3 C2          0.6514   -0.5281   -1.0785 C.ar      1 <0>         0.1736
      4 C3          0.6961   -1.9112   -1.1347 C.ar      1 <0>        -0.1887
      5 C4          1.3032   -2.5568   -2.2034 C.ar      1 <0>         0.0088
      6 C5          1.8727   -1.8111   -3.2132 C.ar      1 <0>        -0.1670
      7 C6          1.8223   -0.4206   -3.1643 C.ar      1 <0>         0.1809
      8 C7          1.2090    0.2216   -2.1025 C.ar      1 <0>        -0.2927
      9 O2          2.3740    0.3107   -4.1681 O.3       1 <0>        -0.3031
     10 C8          2.2883    1.7329   -4.0574 C.3       1 <0>         0.0201
     11 C9          2.5732   -2.4582   -4.3775 C.3       1 <0>         0.1990
     12 C10         2.2740   -1.7214   -5.6711 C.3       1 <0>         0.1142
     13 C11         3.5445   -1.6573   -6.5289 C.3       1 <0>        -0.1247
     14 C12         3.9816   -3.0801   -6.8850 C.3       1 <0>        -0.1327
     15 C13         2.8695   -3.7829   -7.6661 C.3       1 <0>        -0.1218
     16 C14         1.6010   -3.8363   -6.8065 C.3       1 <0>         0.0831
     17 N1          1.2451   -2.4494   -6.4346 N.am      1 <0>        -0.5825
     18 C15         0.0647   -1.8920   -6.7696 C.2       1 <0>         0.4916
     19 O3         -0.2272   -0.7907   -6.3506 O.2       1 <0>        -0.4851
     20 C16        -0.8828   -2.6279   -7.6547 C.2       1 <0>         0.4343
     21 O4         -0.6323   -3.7667   -8.0002 O.2       1 <0>        -0.4074
     22 C17        -2.0734   -2.0014   -8.0929 C.2       1 <0>        -0.1203
     23 C18        -3.0403   -2.5651   -8.9078 C.2       1 <0>        -0.0832
     24 C19        -4.0318   -1.5930   -9.0792 C.2       1 <0>        -0.2363
     25 C20        -3.6457   -0.4977   -8.3809 C.2       1 <0>         0.0269
     26 O5         -2.4731   -0.7488   -7.7864 O.3       1 <0>        -0.1278
     27 C21         1.9147   -4.5566   -5.5168 C.2       1 <0>         0.5220
     28 O6          1.8333   -5.7659   -5.4737 O.2       1 <0>        -0.5310
     29 N2          2.2823   -3.8807   -4.4189 N.am      1 <0>        -0.5975
     30 C22         2.3765   -4.6154   -3.1391 C.3       1 <0>         0.1032
     31 C23         1.2998   -4.0626   -2.2069 C.3       1 <0>        -0.0985
     32 H1          1.0676    1.8943   -0.0580 H         1 <0>         0.0563
     33 H2         -0.4884    1.8717   -0.9220 H         1 <0>         0.0564
     34 H3         -0.4588    1.8874    0.8576 H         1 <0>         0.1035
     35 H4          0.2547   -2.4932   -0.3392 H         1 <0>         0.1340
     36 H5          1.1689    1.3004   -2.0699 H         1 <0>         0.1386
     37 H6          2.7662    2.1940   -4.9217 H         1 <0>         0.1042
     38 H7          1.2408    2.0318   -4.0189 H         1 <0>         0.0589
     39 H8          2.7926    2.0575   -3.1472 H         1 <0>         0.0574
     40 H9          3.6440   -2.3558   -4.2011 H         1 <0>         0.0866
     41 H10         1.9203   -0.7151   -5.4465 H         1 <0>         0.1575
     42 H11         3.3394   -1.0997   -7.4427 H         1 <0>         0.0765
     43 H12         4.3376   -1.1620   -5.9688 H         1 <0>         0.0850
     44 H13         4.8837   -3.0399   -7.4955 H         1 <0>         0.0769
     45 H14         4.1886   -3.6353   -5.9701 H         1 <0>         0.0673
     46 H15         2.6644   -3.2308   -8.5833 H         1 <0>         0.0821
     47 H16         3.1839   -4.7967   -7.9139 H         1 <0>         0.0884
     48 H17         0.7850   -4.3170   -7.3462 H         1 <0>         0.1809
     49 H18        -3.0308   -3.5596   -9.3290 H         1 <0>         0.1675
     50 H19        -4.9364   -1.6962   -9.6602 H         1 <0>         0.1637
     51 H20        -4.1977    0.4279   -8.3116 H         1 <0>         0.2159
     52 H21         2.2071   -5.6785   -3.3099 H         1 <0>         0.1083
     53 H22         3.3614   -4.4636   -2.6974 H         1 <0>         0.0802
     54 H23         1.4844   -4.4226   -1.1947 H         1 <0>         0.0962
     55 H24         0.3238   -4.4169   -2.5385 H         1 <0>         0.0865
@<TRIPOS>BOND
     1    1    2 1
     2    1   32 1
     3    1   33 1
     4    1   34 1
     5    2    3 1
     6    3    8 ar
     7    3    4 ar
     8    4    5 ar
     9    4   35 1
    10    5   31 1
    11    5    6 ar
    12    6    7 ar
    13    6   11 1
    14    7    8 ar
    15    7    9 1
    16    8   36 1
    17    9   10 1
    18   10   37 1
    19   10   38 1
    20   10   39 1
    21   11   29 1
    22   11   12 1
    23   11   40 1
    24   12   17 1
    25   12   13 1
    26   12   41 1
    27   13   14 1
    28   13   42 1
    29   13   43 1
    30   14   15 1
    31   14   44 1
    32   14   45 1
    33   15   16 1
    34   15   46 1
    35   15   47 1
    36   16   17 1
    37   16   27 1
    38   16   48 1
    39   17   18 am
    40   18   19 2
    41   18   20 1
    42   20   21 2
    43   20   22 1
    44   22   26 1
    45   22   23 2
    46   23   24 1
    47   23   49 1
    48   24   25 2
    49   24   50 1
    50   25   26 1
    51   25   51 1
    52   27   28 2
    53   27   29 am
    54   29   30 1
    55   30   31 1
    56   30   52 1
    57   30   53 1
    58   31   54 1
    59   31   55 1
@<TRIPOS>MOLECULE
CHEMBL203094__2
   55    59     0     0     0
SMALL
USER_CHARGES

@<TRIPOS>ATOM
      1 C1         -0.0129    1.3660    0.0714 C.3       1 <0>         0.0257
      2 O1          0.0159   -0.0626    0.0553 O.3       1 <0>        -0.3118
      3 C2          0.6157   -0.6556   -1.0102 C.ar      1 <0>         0.1738
      4 C3          0.6750   -2.0368   -1.0942 C.ar      1 <0>        -0.1887
      5 C4          1.2826   -2.6547   -2.1789 C.ar      1 <0>         0.0090
      6 C5          1.8252   -1.8835   -3.1843 C.ar      1 <0>        -0.1682
      7 C6          1.7741   -0.4947   -3.0999 C.ar      1 <0>         0.1794
      8 C7          1.1652    0.1199   -2.0193 C.ar      1 <0>        -0.2931
      9 O2          2.3206    0.2623   -4.0874 O.3       1 <0>        -0.3030
     10 C8          2.2345    1.6811   -3.9402 C.3       1 <0>         0.0204
     11 C9          2.4672   -2.5003   -4.3978 C.3       1 <0>         0.1986
     12 C10         3.7105   -1.7300   -4.8064 C.3       1 <0>         0.1151
     13 C11         3.7759   -1.6393   -6.3366 C.3       1 <0>        -0.1243
     14 C12         3.8807   -3.0505   -6.9192 C.3       1 <0>        -0.1326
     15 C13         5.1424   -3.7360   -6.3910 C.3       1 <0>        -0.1221
     16 C14         5.0746   -3.8160   -4.8614 C.3       1 <0>         0.0820
     17 N1          4.9146   -2.4405   -4.3406 N.am      1 <0>        -0.5823
     18 C15         5.8061   -1.8777   -3.5011 C.2       1 <0>         0.4921
     19 O3          5.6883   -0.7121   -3.1830 O.2       1 <0>        -0.4860
     20 C16         6.9370   -2.6866   -2.9630 C.2       1 <0>         0.4339
     21 O4          7.1105   -3.8250   -3.3541 O.2       1 <0>        -0.4070
     22 C17         7.8084   -2.1298   -1.9972 C.2       1 <0>        -0.1204
     23 C18         8.8963   -2.7613   -1.4187 C.2       1 <0>        -0.0831
     24 C19         9.4624   -1.8422   -0.5286 C.2       1 <0>        -0.2362
     25 C20         8.7195   -0.7107   -0.5930 C.2       1 <0>         0.0269
     26 O5          7.7317   -0.8855   -1.4790 O.3       1 <0>        -0.1278
     27 C21         3.8272   -4.5694   -4.4657 C.2       1 <0>         0.5222
     28 O6          3.8582   -5.7797   -4.3949 O.2       1 <0>        -0.5304
     29 N2          2.6859   -3.9212   -4.1914 N.am      1 <0>        -0.5981
     30 C22         1.5641   -4.6886   -3.6089 C.3       1 <0>         0.1031
     31 C23         1.3247   -4.1599   -2.1957 C.3       1 <0>        -0.0985
     32 H1          1.0071    1.7502    0.0582 H         1 <0>         0.0564
     33 H2         -0.5490    1.7285   -0.8057 H         1 <0>         0.0565
     34 H3         -0.5187    1.7091    0.9739 H         1 <0>         0.1037
     35 H4          0.2447   -2.6391   -0.3078 H         1 <0>         0.1342
     36 H5          1.1220    1.1974   -1.9608 H         1 <0>         0.1388
     37 H6          2.7080    2.1645   -4.7948 H         1 <0>         0.1047
     38 H7          1.1870    1.9782   -3.8891 H         1 <0>         0.0574
     39 H8          2.7429    1.9829   -3.0245 H         1 <0>         0.0587
     40 H9          1.7562   -2.4020   -5.2181 H         1 <0>         0.0872
     41 H10         3.6826   -0.7312   -4.3707 H         1 <0>         0.1566
     42 H11         2.8737   -1.1563   -6.7118 H         1 <0>         0.0845
     43 H12         4.6502   -1.0582   -6.6300 H         1 <0>         0.0771
     44 H13         3.0044   -3.6292   -6.6270 H         1 <0>         0.0671
     45 H14         3.9286   -2.9911   -8.0065 H         1 <0>         0.0770
     46 H15         5.2103   -4.7420   -6.8052 H         1 <0>         0.0887
     47 H16         6.0198   -3.1607   -6.6866 H         1 <0>         0.0824
     48 H17         5.9714   -4.2845   -4.4562 H         1 <0>         0.1816
     49 H18         9.2400   -3.7661   -1.6155 H         1 <0>         0.1675
     50 H19        10.3297   -2.0045    0.0941 H         1 <0>         0.1638
     51 H20         8.8985    0.1895   -0.0238 H         1 <0>         0.2159
     52 H21         0.6675   -4.5482   -4.2127 H         1 <0>         0.0802
     53 H22         1.8216   -5.7469   -3.5689 H         1 <0>         0.1083
     54 H23         2.1293   -4.5023   -1.5449 H         1 <0>         0.0866
     55 H24         0.3763   -4.5483   -1.8246 H         1 <0>         0.0964
@<TRIPOS>BOND
     1    1    2 1
     2    1   32 1
     3    1   33 1
     4    1   34 1
     5    2    3 1
     6    3    8 ar
     7    3    4 ar
     8    4    5 ar
     9    4   35 1
    10    5   31 1
    11    5    6 ar
    12    6    7 ar
    13    6   11 1
    14    7    8 ar
    15    7    9 1
    16    8   36 1
    17    9   10 1
    18   10   37 1
    19   10   38 1
    20   10   39 1
    21   11   29 1
    22   11   12 1
    23   11   40 1
    24   12   17 1
    25   12   13 1
    26   12   41 1
    27   13   14 1
    28   13   42 1
    29   13   43 1
    30   14   15 1
    31   14   44 1
    32   14   45 1
    33   15   16 1
    34   15   46 1
    35   15   47 1
    36   16   17 1
    37   16   27 1
    38   16   48 1
    39   17   18 am
    40   18   19 2
    41   18   20 1
    42   20   21 2
    43   20   22 1
    44   22   26 1
    45   22   23 2
    46   23   24 1
    47   23   49 1
    48   24   25 2
    49   24   50 1
    50   25   26 1
    51   25   51 1
    52   27   28 2
    53   27   29 am
    54   29   30 1
    55   30   31 1
    56   30   52 1
    57   30   53 1
    58   31   54 1
    59   31   55 1
@<TRIPOS>MOLECULE
CHEMBL203094__3
   55    59     0     0     0
SMALL
USER_CHARGES

@<TRIPOS>ATOM
      1 C1         -0.2334    1.1937   -0.0129 C.3       1 <0>         0.0252
      2 O1         -0.4131   -0.2096   -0.2140 O.3       1 <0>        -0.3099
      3 C2          0.2179   -0.7654   -1.2800 C.ar      1 <0>         0.1787
      4 C3          0.0666   -2.1171   -1.5574 C.ar      1 <0>        -0.1790
      5 C4          0.7372   -2.6775   -2.6214 C.ar      1 <0>         0.0016
      6 C5          1.5896   -1.9186   -3.4155 C.ar      1 <0>        -0.1623
      7 C6          1.6658   -0.5567   -3.1923 C.ar      1 <0>         0.1904
      8 C7          0.9939    0.0169   -2.1174 C.ar      1 <0>        -0.3052
      9 O2          2.3409    0.2741   -4.0306 O.3       1 <0>        -0.3088
     10 C8          2.3509    1.6637   -3.6976 C.3       1 <0>         0.0236
     11 C9          2.3959   -2.6339   -4.4607 C.3       1 <0>         0.2037
     12 C10         3.6221   -1.8433   -4.8879 C.3       1 <0>         0.1413
     13 C11         4.4985   -1.4291   -3.7170 C.3       1 <0>        -0.1168
     14 C12         5.2338   -2.6125   -3.0914 C.3       1 <0>        -0.1321
     15 C13         6.0217   -3.3723   -4.1632 C.3       1 <0>        -0.1202
     16 C14         5.0002   -3.8895   -5.1982 C.3       1 <0>         0.1083
     17 N1          4.4062   -2.6860   -5.8173 N.am      1 <0>        -0.5926
     18 C15         4.5650   -2.3750   -7.1179 C.2       1 <0>         0.4930
     19 O3          3.9576   -1.4395   -7.5969 O.2       1 <0>        -0.4857
     20 C16         5.4869   -3.1798   -7.9697 C.2       1 <0>         0.4326
     21 O4          6.1890   -4.0353   -7.4657 O.2       1 <0>        -0.4081
     22 C17         5.5448   -2.9481   -9.3643 C.2       1 <0>        -0.1207
     23 C18         6.3461   -3.6208  -10.2710 C.2       1 <0>        -0.0840
     24 C19         6.0771   -3.0665  -11.5271 C.2       1 <0>        -0.2367
     25 C20         5.1447   -2.0995  -11.3481 C.2       1 <0>         0.0271
     26 O5          4.8243   -2.0353  -10.0502 O.3       1 <0>        -0.1282
     27 C21         3.9106   -4.5804   -4.4190 C.2       1 <0>         0.5114
     28 O6          4.0810   -5.7409   -4.1036 O.2       1 <0>        -0.5324
     29 N2          2.7583   -3.9872   -4.0492 N.am      1 <0>        -0.5978
     30 C22         1.8771   -4.7990   -3.1980 C.3       1 <0>         0.1179
     31 C23         0.5310   -4.1279   -2.9720 C.3       1 <0>        -0.0932
     32 H1          0.8259    1.4076    0.1296 H         1 <0>         0.0568
     33 H2         -0.5994    1.7355   -0.8850 H         1 <0>         0.0569
     34 H3         -0.7895    1.5084    0.8701 H         1 <0>         0.1045
     35 H4         -0.5737   -2.7301   -0.9401 H         1 <0>         0.1379
     36 H5          1.0800    1.0789   -1.9393 H         1 <0>         0.1401
     37 H6          2.9225    2.2126   -4.4461 H         1 <0>         0.1053
     38 H7          1.3279    2.0391   -3.6744 H         1 <0>         0.0579
     39 H8          2.8101    1.7994   -2.7184 H         1 <0>         0.0570
     40 H9          1.7545   -2.7353   -5.3510 H         1 <0>         0.0781
     41 H10         3.3071   -0.9589   -5.4465 H         1 <0>         0.1332
     42 H11         5.2367   -0.6980   -4.0604 H         1 <0>         0.0723
     43 H12         3.8902   -0.9587   -2.9417 H         1 <0>         0.0817
     44 H13         5.9308   -2.2421   -2.3345 H         1 <0>         0.0735
     45 H14         4.5196   -3.2801   -2.6129 H         1 <0>         0.0684
     46 H15         6.7320   -2.7031   -4.6478 H         1 <0>         0.0847
     47 H16         6.5483   -4.2140   -3.7126 H         1 <0>         0.0889
     48 H17         5.4601   -4.5467   -5.9322 H         1 <0>         0.1678
     49 H18         7.0425   -4.4166  -10.0517 H         1 <0>         0.1671
     50 H19         6.5286   -3.3553  -12.4647 H         1 <0>         0.1634
     51 H20         4.7244   -1.4823  -12.1285 H         1 <0>         0.2161
     52 H21         1.7150   -5.7663   -3.6777 H         1 <0>         0.0843
     53 H22         2.3624   -4.9641   -2.2357 H         1 <0>         0.0717
     54 H23         0.0070   -4.6258   -2.1561 H         1 <0>         0.0995
     55 H24        -0.0706   -4.1973   -3.8798 H         1 <0>         0.0918
@<TRIPOS>BOND
     1    1    2 1
     2    1   32 1
     3    1   33 1
     4    1   34 1
     5    2    3 1
     6    3    8 ar
     7    3    4 ar
     8    4    5 ar
     9    4   35 1
    10    5   31 1
    11    5    6 ar
    12    6    7 ar
    13    6   11 1
    14    7    8 ar
    15    7    9 1
    16    8   36 1
    17    9   10 1
    18   10   37 1
    19   10   38 1
    20   10   39 1
    21   11   29 1
    22   11   12 1
    23   11   40 1
    24   12   17 1
    25   12   13 1
    26   12   41 1
    27   13   14 1
    28   13   42 1
    29   13   43 1
    30   14   15 1
    31   14   44 1
    32   14   45 1
    33   15   16 1
    34   15   46 1
    35   15   47 1
    36   16   17 1
    37   16   27 1
    38   16   48 1
    39   17   18 am
    40   18   19 2
    41   18   20 1
    42   20   21 2
    43   20   22 1
    44   22   26 1
    45   22   23 2
    46   23   24 1
    47   23   49 1
    48   24   25 2
    49   24   50 1
    50   25   26 1
    51   25   51 1
    52   27   28 2
    53   27   29 am
    54   29   30 1
    55   30   31 1
    56   30   52 1
    57   30   53 1
    58   31   54 1
    59   31   55 1
@<TRIPOS>MOLECULE
CHEMBL148517
   55    57     0     0     0
SMALL
USER_CHARGES

@<TRIPOS>ATOM
      1 C1         -0.0167    1.3776    0.0096 C.ar      1 <0>        -0.1698
      2 C2          1.1849    2.0698    0.0019 C.ar      1 <0>        -0.0722
      3 C3          2.3651    1.3426   -0.0133 C.ar      1 <0>        -0.1351
      4 C4          2.3054   -0.0383   -0.0202 C.ar      1 <0>         0.1033
      5 N1          1.1443   -0.6632   -0.0129 N.ar      1 <0>        -0.4829
      6 C5          0.0021   -0.0041    0.0020 C.ar      1 <0>         0.0947
      7 C6          3.6964    2.0488   -0.0227 C.3       1 <0>        -0.0738
      8 C7          4.1610    2.2805    1.4165 C.3       1 <0>        -0.1127
      9 C8          5.5125    2.9975    1.4069 C.3       1 <0>         0.0658
     10 O1          5.9465    3.2139    2.7512 O.3       1 <0>        -0.3490
     11 C9          7.1237    3.8366    2.9187 C.2       1 <0>         0.4539
     12 O2          7.7646    4.1864    1.9560 O.2       1 <0>        -0.4867
     13 C10         7.6461    4.0995    4.3076 C.3       1 <0>         0.1437
     14 C11         6.6765    5.0306    5.0656 C.3       1 <0>        -0.1184
     15 C12         7.6340    5.9498    5.8690 C.3       1 <0>        -0.1345
     16 C13         8.8171    6.1057    4.8812 C.3       1 <0>         0.0928
     17 N2          8.9429    4.7881    4.2320 N.am      1 <0>        -0.5865
     18 C14        10.0616    4.2961    3.6638 C.2       1 <0>         0.4968
     19 O3         10.0501    3.1935    3.1566 O.2       1 <0>        -0.4928
     20 C15        11.3132    5.1061    3.6583 C.2       1 <0>         0.3656
     21 O4         11.3246    6.2034    4.1630 O.2       1 <0>        -0.4117
     22 C16        12.5641    4.5560    3.0229 C.3       1 <0>        -0.1169
     23 C17        12.6035    4.9541    1.5462 C.3       1 <0>        -0.1057
     24 C18        13.8735    4.3956    0.9011 C.3       1 <0>        -0.1163
     25 C19        15.1010    4.9643    1.6157 C.3       1 <0>        -0.1232
     26 C20        15.0616    4.5661    3.0924 C.3       1 <0>        -0.1184
     27 C21        13.7916    5.1247    3.7375 C.3       1 <0>        -0.1084
     28 H1         -0.9552    1.9117    0.0259 H         1 <0>         0.1363
     29 H2          1.2009    3.1496    0.0072 H         1 <0>         0.1342
     30 H3          3.2203   -0.6121   -0.0320 H         1 <0>         0.1550
     31 H4         -0.9294   -0.5505    0.0083 H         1 <0>         0.1563
     32 H5          4.4293    1.4355   -0.5468 H         1 <0>         0.0819
     33 H6          3.5953    3.0079   -0.5308 H         1 <0>         0.0795
     34 H7          3.4280    2.8939    1.9406 H         1 <0>         0.0768
     35 H8          4.2620    1.3215    1.9245 H         1 <0>         0.0786
     36 H9          6.2455    2.3842    0.8828 H         1 <0>         0.0709
     37 H10         5.4115    3.9566    0.8989 H         1 <0>         0.0687
     38 H11         7.7570    3.1583    4.8461 H         1 <0>         0.1209
     39 H12         6.0773    5.6145    4.3669 H         1 <0>         0.0847
     40 H13         6.0378    4.4575    5.7377 H         1 <0>         0.1033
     41 H14         7.1684    6.9133    6.0761 H         1 <0>         0.0959
     42 H15         7.9564    5.4670    6.7916 H         1 <0>         0.0856
     43 H16         8.5941    6.8738    4.1405 H         1 <0>         0.0766
     44 H17         9.7317    6.3518    5.4205 H         1 <0>         0.1043
     45 H18        12.5662    3.4692    3.1064 H         1 <0>         0.1090
     46 H19        11.7290    4.5490    1.0371 H         1 <0>         0.0721
     47 H20        12.6014    6.0409    1.4627 H         1 <0>         0.0684
     48 H21        13.8756    3.3088    0.9846 H         1 <0>         0.0673
     49 H22        13.9016    4.6792   -0.1509 H         1 <0>         0.0686
     50 H23        16.0058    4.5663    1.1561 H         1 <0>         0.0654
     51 H24        15.0989    6.0511    1.5322 H         1 <0>         0.0636
     52 H25        15.0636    3.4793    3.1759 H         1 <0>         0.0653
     53 H26        15.9361    4.9713    3.6015 H         1 <0>         0.0681
     54 H27        13.7895    6.2115    3.6540 H         1 <0>         0.0749
     55 H28        13.7635    4.8410    4.7895 H         1 <0>         0.0659
@<TRIPOS>BOND
     1    1    6 ar
     2    1    2 ar
     3    1   28 1
     4    2    3 ar
     5    2   29 1
     6    3    4 ar
     7    3    7 1
     8    4    5 ar
     9    4   30 1
    10    5    6 ar
    11    6   31 1
    12    7    8 1
    13    7   32 1
    14    7   33 1
    15    8    9 1
    16    8   34 1
    17    8   35 1
    18    9   10 1
    19    9   36 1
    20    9   37 1
    21   10   11 1
    22   11   12 2
    23   11   13 1
    24   13   17 1
    25   13   14 1
    26   13   38 1
    27   14   15 1
    28   14   39 1
    29   14   40 1
    30   15   16 1
    31   15   41 1
    32   15   42 1
    33   16   17 1
    34   16   43 1
    35   16   44 1
    36   17   18 am
    37   18   19 2
    38   18   20 1
    39   20   21 2
    40   20   22 1
    41   22   27 1
    42   22   23 1
    43   22   45 1
    44   23   24 1
    45   23   46 1
    46   23   47 1
    47   24   25 1
    48   24   48 1
    49   24   49 1
    50   25   26 1
    51   25   50 1
    52   25   51 1
    53   26   27 1
    54   26   52 1
    55   26   53 1
    56   27   54 1
    57   27   55 1
@<TRIPOS>MOLECULE
CHEMBL148517__1
   55    57     0     0     0
SMALL
USER_CHARGES

@<TRIPOS>ATOM
      1 C1         -0.0167    1.3776    0.0096 C.ar      1 <0>        -0.1694
      2 C2          1.1849    2.0698    0.0019 C.ar      1 <0>        -0.0720
      3 C3          2.3651    1.3426   -0.0133 C.ar      1 <0>        -0.1350
      4 C4          2.3054   -0.0383   -0.0202 C.ar      1 <0>         0.1029
      5 N1          1.1443   -0.6632   -0.0129 N.ar      1 <0>        -0.4831
      6 C5          0.0021   -0.0041    0.0020 C.ar      1 <0>         0.0946
      7 C6          3.6964    2.0488   -0.0227 C.3       1 <0>        -0.0738
      8 C7          4.1610    2.2805    1.4165 C.3       1 <0>        -0.1127
      9 C8          5.5125    2.9975    1.4069 C.3       1 <0>         0.0658
     10 O1          5.9465    3.2139    2.7512 O.3       1 <0>        -0.3490
     11 C9          7.1237    3.8366    2.9187 C.2       1 <0>         0.4539
     12 O2          7.7646    4.1864    1.9560 O.2       1 <0>        -0.4866
     13 C10         7.6461    4.0995    4.3076 C.3       1 <0>         0.1438
     14 C11         7.8794    2.7626    5.0424 C.3       1 <0>        -0.1185
     15 C12         9.1842    3.0271    5.8391 C.3       1 <0>        -0.1345
     16 C13         9.9686    3.9347    4.8590 C.3       1 <0>         0.0928
     17 N2          8.9429    4.7881    4.2320 N.am      1 <0>        -0.5865
     18 C14         9.1584    5.9988    3.6805 C.2       1 <0>         0.4970
     19 O3          8.2351    6.6153    3.1902 O.2       1 <0>        -0.4931
     20 C15        10.5310    6.5808    3.6727 C.2       1 <0>         0.3651
     21 O4         11.4499    5.9672    4.1607 O.2       1 <0>        -0.4117
     22 C16        10.7720    7.9345    3.0560 C.3       1 <0>        -0.1162
     23 C17        10.9888    7.7775    1.5496 C.3       1 <0>        -0.1059
     24 C18        11.2334    9.1519    0.9235 C.3       1 <0>        -0.1161
     25 C19        12.4749    9.7859    1.5541 C.3       1 <0>        -0.1233
     26 C20        12.2582    9.9429    3.0605 C.3       1 <0>        -0.1185
     27 C21        12.0135    8.5685    3.6866 C.3       1 <0>        -0.1083
     28 H1         -0.9552    1.9117    0.0259 H         1 <0>         0.1364
     29 H2          1.2009    3.1496    0.0072 H         1 <0>         0.1346
     30 H3          3.2203   -0.6121   -0.0320 H         1 <0>         0.1547
     31 H4         -0.9294   -0.5505    0.0083 H         1 <0>         0.1564
     32 H5          4.4293    1.4355   -0.5468 H         1 <0>         0.0815
     33 H6          3.5953    3.0079   -0.5308 H         1 <0>         0.0799
     34 H7          3.4280    2.8939    1.9406 H         1 <0>         0.0771
     35 H8          4.2620    1.3215    1.9245 H         1 <0>         0.0782
     36 H9          6.2455    2.3842    0.8828 H         1 <0>         0.0695
     37 H10         5.4115    3.9566    0.8989 H         1 <0>         0.0701
     38 H11         6.9337    4.7105    4.8620 H         1 <0>         0.1206
     39 H12         7.0524    2.5446    5.7181 H         1 <0>         0.1033
     40 H13         8.0207    1.9503    4.3295 H         1 <0>         0.0850
     41 H14         8.9732    3.5500    6.7720 H         1 <0>         0.0855
     42 H15         9.7224    2.0980    6.0270 H         1 <0>         0.0960
     43 H16        10.6899    4.5453    5.4021 H         1 <0>         0.1043
     44 H17        10.4730    3.3312    4.1043 H         1 <0>         0.0768
     45 H18         9.9074    8.5740    3.2340 H         1 <0>         0.1092
     46 H19        11.8534    7.1380    1.3717 H         1 <0>         0.0676
     47 H20        10.1043    7.3258    1.1004 H         1 <0>         0.0733
     48 H21        11.3878    9.0400   -0.1497 H         1 <0>         0.0685
     49 H22        10.3688    9.7913    1.1015 H         1 <0>         0.0671
     50 H23        13.3396    9.1464    1.3761 H         1 <0>         0.0635
     51 H24        12.6492   10.7650    1.1080 H         1 <0>         0.0652
     52 H25        13.1427   10.3946    3.5097 H         1 <0>         0.0680
     53 H26        11.3935   10.5824    3.2384 H         1 <0>         0.0651
     54 H27        11.8591    8.6804    4.7598 H         1 <0>         0.0662
     55 H28        12.8781    7.9291    3.5086 H         1 <0>         0.0746
@<TRIPOS>BOND
     1    1    6 ar
     2    1    2 ar
     3    1   28 1
     4    2    3 ar
     5    2   29 1
     6    3    4 ar
     7    3    7 1
     8    4    5 ar
     9    4   30 1
    10    5    6 ar
    11    6   31 1
    12    7    8 1
    13    7   32 1
    14    7   33 1
    15    8    9 1
    16    8   34 1
    17    8   35 1
    18    9   10 1
    19    9   36 1
    20    9   37 1
    21   10   11 1
    22   11   12 2
    23   11   13 1
    24   13   17 1
    25   13   14 1
    26   13   38 1
    27   14   15 1
    28   14   39 1
    29   14   40 1
    30   15   16 1
    31   15   41 1
    32   15   42 1
    33   16   17 1
    34   16   43 1
    35   16   44 1
    36   17   18 am
    37   18   19 2
    38   18   20 1
    39   20   21 2
    40   20   22 1
    41   22   27 1
    42   22   23 1
    43   22   45 1
    44   23   24 1
    45   23   46 1
    46   23   47 1
    47   24   25 1
    48   24   48 1
    49   24   49 1
    50   25   26 1
    51   25   50 1
    52   25   51 1
    53   26   27 1
    54   26   52 1
    55   26   53 1
    56   27   54 1
    57   27   55 1
@<TRIPOS>MOLECULE
CHEMBL417908
   74    76     0     0     0
SMALL
USER_CHARGES

@<TRIPOS>ATOM
      1 C1         -4.0364   -0.8759   -5.6150 C.3       1 <0>        -0.1557
      2 C2         -3.4471   -1.9709   -4.7237 C.3       1 <0>        -0.1087
      3 C3         -1.9538   -2.1220   -5.0210 C.3       1 <0>        -0.0864
      4 C4         -1.7624   -2.5026   -6.4905 C.3       1 <0>        -0.1464
      5 C5         -1.2414   -0.7974   -4.7403 C.3       1 <0>        -0.1453
      6 C6         -1.3734   -3.2005   -4.1430 C.2       1 <0>         0.3746
      7 O1         -2.0811   -3.7879   -3.3601 O.2       1 <0>        -0.4051
      8 C7          0.0744   -3.5425   -4.2408 C.2       1 <0>         0.4753
      9 O2          0.7615   -3.0331   -5.1018 O.2       1 <0>        -0.4766
     10 N1          0.6203   -4.4175   -3.3731 N.am      1 <0>        -0.5762
     11 C8         -0.2233   -5.1522   -2.4206 C.3       1 <0>         0.0472
     12 C9          0.3257   -4.9359   -1.0069 C.3       1 <0>        -0.1352
     13 C10         1.8039   -5.3309   -0.9721 C.3       1 <0>        -0.1203
     14 C11         2.5935   -4.4444   -1.9378 C.3       1 <0>        -0.1229
     15 C12         2.0695   -4.6593   -3.3658 C.3       1 <0>         0.1465
     16 C13         2.7472   -3.6953   -4.3052 C.2       1 <0>         0.4806
     17 O3          2.7192   -2.5091   -4.0773 O.2       1 <0>        -0.4886
     18 O4          3.3820   -4.1544   -5.3951 O.3       1 <0>        -0.3424
     19 C14         4.0024   -3.1844   -6.2414 C.3       1 <0>         0.0962
     20 C15         5.4441   -2.9554   -5.7833 C.3       1 <0>        -0.1328
     21 C16         5.4423   -2.3317   -4.3862 C.3       1 <0>        -0.0758
     22 C17         6.8624   -2.1061   -3.9350 C.ar      1 <0>        -0.0796
     23 C18         7.5341   -3.0978   -3.2449 C.ar      1 <0>        -0.1189
     24 C19         8.8367   -2.8910   -2.8310 C.ar      1 <0>        -0.1176
     25 C20         9.4677   -1.6925   -3.1075 C.ar      1 <0>        -0.1262
     26 C21         8.7963   -0.7011   -3.7984 C.ar      1 <0>        -0.1172
     27 C22         7.4952   -0.9097   -4.2160 C.ar      1 <0>        -0.1178
     28 C23         4.0004   -3.6913   -7.6850 C.3       1 <0>        -0.1077
     29 C24         2.5586   -3.8015   -8.1848 C.3       1 <0>        -0.0761
     30 C25         2.5566   -4.3008   -9.6067 C.ar      1 <0>        -0.0795
     31 C26         2.6125   -3.4015  -10.6551 C.ar      1 <0>        -0.1185
     32 C27         2.6107   -3.8595  -11.9594 C.ar      1 <0>        -0.1181
     33 C28         2.5534   -5.2168  -12.2153 C.ar      1 <0>        -0.1261
     34 C29         2.4985   -6.1161  -11.1669 C.ar      1 <0>        -0.1182
     35 C30         2.5046   -5.6583   -9.8625 C.ar      1 <0>        -0.1171
     36 H1         -3.5288    0.0677   -5.4150 H         1 <0>         0.0601
     37 H2         -3.9000   -1.1471   -6.6619 H         1 <0>         0.0602
     38 H3         -5.1001   -0.7683   -5.4032 H         1 <0>         0.0586
     39 H4         -3.5834   -1.6998   -3.6768 H         1 <0>         0.0692
     40 H5         -3.9546   -2.9146   -4.9237 H         1 <0>         0.0694
     41 H6         -2.1823   -1.7225   -7.1255 H         1 <0>         0.0754
     42 H7         -0.6986   -2.6102   -6.7023 H         1 <0>         0.0813
     43 H8         -2.2700   -3.4462   -6.6905 H         1 <0>         0.0559
     44 H9         -1.3777   -0.5263   -3.6934 H         1 <0>         0.0561
     45 H10        -0.1776   -0.9050   -4.9521 H         1 <0>         0.0786
     46 H11        -1.6612   -0.0173   -5.3753 H         1 <0>         0.0759
     47 H12        -1.2464   -4.7803   -2.4761 H         1 <0>         0.1555
     48 H13        -0.2052   -6.2153   -2.6609 H         1 <0>         0.0736
     49 H14         0.2233   -3.8857   -0.7336 H         1 <0>         0.0683
     50 H15        -0.2322   -5.5519   -0.3017 H         1 <0>         0.0827
     51 H16         2.1907   -5.2012    0.0387 H         1 <0>         0.0758
     52 H17         1.9080   -6.3744   -1.2694 H         1 <0>         0.0697
     53 H18         2.4697   -3.3988   -1.6558 H         1 <0>         0.0830
     54 H19         3.6496   -4.7106   -1.8952 H         1 <0>         0.0829
     55 H20         2.2707   -5.6830   -3.6817 H         1 <0>         0.1052
     56 H21         3.4499   -2.2465   -6.1849 H         1 <0>         0.0897
     57 H22         5.9721   -3.9086   -5.7549 H         1 <0>         0.0732
     58 H23         5.9445   -2.2835   -6.4805 H         1 <0>         0.0811
     59 H24         4.9144   -1.3785   -4.4145 H         1 <0>         0.0801
     60 H25         4.9419   -3.0036   -3.6889 H         1 <0>         0.0648
     61 H26         7.0411   -4.0341   -3.0289 H         1 <0>         0.1181
     62 H27         9.3613   -3.6655   -2.2912 H         1 <0>         0.1210
     63 H28        10.4852   -1.5306   -2.7835 H         1 <0>         0.1207
     64 H29         9.2892    0.2353   -4.0141 H         1 <0>         0.1214
     65 H30         6.9718   -0.1365   -4.7590 H         1 <0>         0.1204
     66 H31         4.5513   -2.9936   -8.3158 H         1 <0>         0.0832
     67 H32         4.4753   -4.6715   -7.7266 H         1 <0>         0.0745
     68 H33         2.0077   -4.4992   -7.5540 H         1 <0>         0.0761
     69 H34         2.0836   -2.8213   -8.1433 H         1 <0>         0.0731
     70 H35         2.6572   -2.3412  -10.4552 H         1 <0>         0.1203
     71 H36         2.6536   -3.1569  -12.7785 H         1 <0>         0.1208
     72 H37         2.5513   -5.5745  -13.2343 H         1 <0>         0.1202
     73 H38         2.4534   -7.1764  -11.3668 H         1 <0>         0.1206
     74 H39         2.4654   -6.3611   -9.0434 H         1 <0>         0.1198
@<TRIPOS>BOND
     1    1    2 1
     2    1   36 1
     3    1   37 1
     4    1   38 1
     5    2    3 1
     6    2   39 1
     7    2   40 1
     8    3    4 1
     9    3    5 1
    10    3    6 1
    11    4   41 1
    12    4   42 1
    13    4   43 1
    14    5   44 1
    15    5   45 1
    16    5   46 1
    17    6    7 2
    18    6    8 1
    19    8    9 2
    20    8   10 am
    21   10   15 1
    22   10   11 1
    23   11   12 1
    24   11   47 1
    25   11   48 1
    26   12   13 1
    27   12   49 1
    28   12   50 1
    29   13   14 1
    30   13   51 1
    31   13   52 1
    32   14   15 1
    33   14   53 1
    34   14   54 1
    35   15   16 1
    36   15   55 1
    37   16   17 2
    38   16   18 1
    39   18   19 1
    40   19   20 1
    41   19   28 1
    42   19   56 1
    43   20   21 1
    44   20   57 1
    45   20   58 1
    46   21   22 1
    47   21   59 1
    48   21   60 1
    49   22   27 ar
    50   22   23 ar
    51   23   24 ar
    52   23   61 1
    53   24   25 ar
    54   24   62 1
    55   25   26 ar
    56   25   63 1
    57   26   27 ar
    58   26   64 1
    59   27   65 1
    60   28   29 1
    61   28   66 1
    62   28   67 1
    63   29   30 1
    64   29   68 1
    65   29   69 1
    66   30   35 ar
    67   30   31 ar
    68   31   32 ar
    69   31   70 1
    70   32   33 ar
    71   32   71 1
    72   33   34 ar
    73   33   72 1
    74   34   35 ar
    75   34   73 1
    76   35   74 1
@<TRIPOS>MOLECULE
CHEMBL417908__1
   74    76     0     0     0
SMALL
USER_CHARGES

@<TRIPOS>ATOM
      1 C1          6.0108    0.0143    0.8857 C.3       1 <0>        -0.1549
      2 C2          5.2578   -1.3130    0.7754 C.3       1 <0>        -0.1077
      3 C3          4.7651   -1.5021   -0.6607 C.3       1 <0>        -0.0869
      4 C4          3.8282   -0.3517   -1.0341 C.3       1 <0>        -0.1437
      5 C5          5.9625   -1.5144   -1.6131 C.3       1 <0>        -0.1519
      6 C6          4.0235   -2.8095   -0.7693 C.2       1 <0>         0.3658
      7 O1          3.9015   -3.5171    0.2019 O.2       1 <0>        -0.4142
      8 C7          3.4403   -3.2294   -2.0755 C.2       1 <0>         0.4485
      9 O2          3.6532   -2.5733   -3.0741 O.2       1 <0>        -0.4437
     10 N1          2.6767   -4.3376   -2.1475 N.am      1 <0>        -0.5811
     11 C8          2.2653   -5.0438   -0.9265 C.3       1 <0>         0.0734
     12 C9          0.7413   -5.1991   -0.9364 C.3       1 <0>        -0.1387
     13 C10         0.3109   -5.8855   -2.2348 C.3       1 <0>        -0.1191
     14 C11         0.7160   -5.0198   -3.4300 C.3       1 <0>        -0.1238
     15 C12         2.2347   -4.8590   -3.4480 C.3       1 <0>         0.1547
     16 C13         2.6256   -3.8948   -4.5382 C.2       1 <0>         0.4389
     17 O3          2.4081   -2.7136   -4.4065 O.2       1 <0>        -0.4307
     18 O4          3.2154   -4.3481   -5.6555 O.3       1 <0>        -0.3458
     19 C14         3.5589   -3.3782   -6.6471 C.3       1 <0>         0.0953
     20 C15         4.9755   -2.8623   -6.3868 C.3       1 <0>        -0.1313
     21 C16         5.0073   -2.1088   -5.0556 C.3       1 <0>        -0.1010
     22 C17         6.4026   -1.6006   -4.7991 C.ar      1 <0>        -0.0669
     23 C18         7.3105   -2.3883   -4.1163 C.ar      1 <0>        -0.1154
     24 C19         8.5904   -1.9221   -3.8811 C.ar      1 <0>        -0.1180
     25 C20         8.9627   -0.6685   -4.3291 C.ar      1 <0>        -0.1282
     26 C21         8.0551    0.1189   -5.0127 C.ar      1 <0>        -0.1172
     27 C22         6.7764   -0.3490   -5.2517 C.ar      1 <0>        -0.1201
     28 C23         3.4975   -4.0226   -8.0335 C.3       1 <0>        -0.1097
     29 C24         2.0550   -4.4264   -8.3448 C.3       1 <0>        -0.0808
     30 C25         1.9946   -5.0611   -9.7103 C.ar      1 <0>        -0.0816
     31 C26         1.7776   -4.2770  -10.8279 C.ar      1 <0>        -0.1187
     32 C27         1.7221   -4.8591  -12.0805 C.ar      1 <0>        -0.1180
     33 C28         1.8841   -6.2253  -12.2155 C.ar      1 <0>        -0.1250
     34 C29         2.1020   -7.0093  -11.0980 C.ar      1 <0>        -0.1181
     35 C30         2.1617   -6.4266   -9.8459 C.ar      1 <0>        -0.1165
     36 H1          6.8638    0.0055    0.2072 H         1 <0>         0.0597
     37 H2          5.3433    0.8339    0.6197 H         1 <0>         0.0592
     38 H3          6.3618    0.1490    1.9088 H         1 <0>         0.0570
     39 H4          5.9253   -2.1326    1.0415 H         1 <0>         0.0674
     40 H5          4.4048   -1.3043    1.4540 H         1 <0>         0.0670
     41 H6          4.3646    0.5939   -0.9555 H         1 <0>         0.0732
     42 H7          3.4772   -0.4864   -2.0572 H         1 <0>         0.0791
     43 H8          2.9752   -0.3429   -0.3555 H         1 <0>         0.0538
     44 H9          6.6300   -2.3340   -1.3471 H         1 <0>         0.0516
     45 H10         5.6115   -1.6491   -2.6362 H         1 <0>         0.0941
     46 H11         6.4989   -0.5688   -1.5346 H         1 <0>         0.0707
     47 H12         2.7327   -6.0281   -0.8986 H         1 <0>         0.0741
     48 H13         2.5683   -4.4683   -0.0518 H         1 <0>         0.1361
     49 H14         0.4318   -5.8049   -0.0847 H         1 <0>         0.0826
     50 H15         0.2750   -4.2159   -0.8728 H         1 <0>         0.0685
     51 H16         0.7970   -6.8583   -2.3096 H         1 <0>         0.0703
     52 H17        -0.7708   -6.0195   -2.2334 H         1 <0>         0.0756
     53 H18         0.3885   -5.4980   -4.3532 H         1 <0>         0.0856
     54 H19         0.2500   -4.0384   -3.3429 H         1 <0>         0.0792
     55 H20         2.6995   -5.8279   -3.6304 H         1 <0>         0.1070
     56 H21         2.8553   -2.5470   -6.6014 H         1 <0>         0.0841
     57 H22         5.6667   -3.7041   -6.3444 H         1 <0>         0.0689
     58 H23         5.2710   -2.1898   -7.1921 H         1 <0>         0.0751
     59 H24         4.3161   -1.2670   -5.0980 H         1 <0>         0.0765
     60 H25         4.7118   -2.7813   -4.2503 H         1 <0>         0.1188
     61 H26         7.0197   -3.3677   -3.7663 H         1 <0>         0.1123
     62 H27         9.2995   -2.5372   -3.3470 H         1 <0>         0.1173
     63 H28         9.9624   -0.3040   -4.1447 H         1 <0>         0.1176
     64 H29         8.3458    1.0984   -5.3624 H         1 <0>         0.1181
     65 H30         6.0685    0.2646   -5.7890 H         1 <0>         0.1173
     66 H31         3.8446   -3.3095   -8.7812 H         1 <0>         0.0844
     67 H32         4.1344   -4.9070   -8.0516 H         1 <0>         0.0767
     68 H33         1.7079   -5.1395   -7.5970 H         1 <0>         0.0767
     69 H34         1.4181   -3.5420   -8.3267 H         1 <0>         0.0711
     70 H35         1.6510   -3.2096  -10.7224 H         1 <0>         0.1205
     71 H36         1.5519   -4.2466  -12.9535 H         1 <0>         0.1213
     72 H37         1.8401   -6.6802  -13.1940 H         1 <0>         0.1207
     73 H38         2.2282   -8.0767  -11.2034 H         1 <0>         0.1214
     74 H39         2.3357   -7.0386   -8.9732 H         1 <0>         0.1214
@<TRIPOS>BOND
     1    1    2 1
     2    1   36 1
     3    1   37 1
     4    1   38 1
     5    2    3 1
     6    2   39 1
     7    2   40 1
     8    3    4 1
     9    3    5 1
    10    3    6 1
    11    4   41 1
    12    4   42 1
    13    4   43 1
    14    5   44 1
    15    5   45 1
    16    5   46 1
    17    6    7 2
    18    6    8 1
    19    8    9 2
    20    8   10 am
    21   10   15 1
    22   10   11 1
    23   11   12 1
    24   11   47 1
    25   11   48 1
    26   12   13 1
    27   12   49 1
    28   12   50 1
    29   13   14 1
    30   13   51 1
    31   13   52 1
    32   14   15 1
    33   14   53 1
    34   14   54 1
    35   15   16 1
    36   15   55 1
    37   16   17 2
    38   16   18 1
    39   18   19 1
    40   19   20 1
    41   19   28 1
    42   19   56 1
    43   20   21 1
    44   20   57 1
    45   20   58 1
    46   21   22 1
    47   21   59 1
    48   21   60 1
    49   22   27 ar
    50   22   23 ar
    51   23   24 ar
    52   23   61 1
    53   24   25 ar
    54   24   62 1
    55   25   26 ar
    56   25   63 1
    57   26   27 ar
    58   26   64 1
    59   27   65 1
    60   28   29 1
    61   28   66 1
    62   28   67 1
    63   29   30 1
    64   29   68 1
    65   29   69 1
    66   30   35 ar
    67   30   31 ar
    68   31   32 ar
    69   31   70 1
    70   32   33 ar
    71   32   71 1
    72   33   34 ar
    73   33   72 1
    74   34   35 ar
    75   34   73 1
    76   35   74 1
@<TRIPOS>MOLECULE
CHEMBL51710
   62    63     0     0     0
SMALL
USER_CHARGES

@<TRIPOS>ATOM
      1 C1         -0.1406    1.5234   -0.0551 C.3       1 <0>        -0.1378
      2 C2         -0.0837   -0.0055   -0.0450 C.3       1 <0>        -0.0914
      3 C3          0.6486   -0.4803    1.2117 C.3       1 <0>        -0.1452
      4 C4         -1.5062   -0.5688   -0.0498 C.3       1 <0>        -0.1443
      5 C5          0.6522   -0.4889   -1.2680 C.2       1 <0>         0.3753
      6 O1          1.0864    0.3074   -2.0656 O.2       1 <0>        -0.4040
      7 C6          0.8442   -1.9501   -1.4934 C.2       1 <0>         0.4747
      8 O2          0.5074   -2.7451   -0.6405 O.2       1 <0>        -0.4797
      9 N1          1.3918   -2.3881   -2.6444 N.am      1 <0>        -0.5769
     10 C7          1.9375   -1.4378   -3.6231 C.3       1 <0>         0.0472
     11 C8          1.2948   -1.7106   -4.9866 C.3       1 <0>        -0.1357
     12 C9          1.4992   -3.1813   -5.3573 C.3       1 <0>        -0.1202
     13 C10         0.8176   -4.0712   -4.3153 C.3       1 <0>        -0.1232
     14 C11         1.4598   -3.8254   -2.9416 C.3       1 <0>         0.1476
     15 C12         0.7095   -4.5957   -1.8858 C.2       1 <0>         0.4797
     16 O3         -0.4840   -4.4506   -1.7659 O.2       1 <0>        -0.4939
     17 O4          1.3671   -5.4430   -1.0787 O.3       1 <0>        -0.3514
     18 C13         0.5927   -6.1400   -0.1006 C.3       1 <0>         0.0724
     19 C14         1.5077   -7.0522    0.7189 C.3       1 <0>        -0.1182
     20 C15         0.6786   -7.7984    1.7661 C.3       1 <0>        -0.1110
     21 C16         1.5937   -8.7106    2.5856 C.3       1 <0>        -0.0740
     22 C17         0.7770   -9.4456    3.6171 C.ar      1 <0>        -0.1202
     23 C18         0.5850   -8.8906    4.8688 C.ar      1 <0>        -0.0766
     24 C19        -0.1628   -9.5626    5.8162 C.ar      1 <0>        -0.1495
     25 C20        -0.7216  -10.7951    5.5107 C.ar      1 <0>         0.1224
     26 C21        -0.5278  -11.3496    4.2539 C.ar      1 <0>        -0.2061
     27 C22         0.2165  -10.6712    3.3082 C.ar      1 <0>        -0.0767
     28 O5         -1.4573  -11.4583    6.4412 O.3       1 <0>        -0.3187
     29 C23        -2.0022  -12.7223    6.0570 C.3       1 <0>         0.0270
     30 H1          0.8729    1.9247   -0.0516 H         1 <0>         0.0634
     31 H2         -0.6623    1.8617   -0.9504 H         1 <0>         0.0631
     32 H3         -0.6728    1.8730    0.8295 H         1 <0>         0.0706
     33 H4          0.1163   -0.1307    2.0963 H         1 <0>         0.0732
     34 H5          0.6891   -1.5695    1.2189 H         1 <0>         0.0809
     35 H6          1.6620   -0.0790    1.2152 H         1 <0>         0.0570
     36 H7         -2.0279   -0.2306   -0.9451 H         1 <0>         0.0571
     37 H8         -1.4657   -1.6580   -0.0426 H         1 <0>         0.0783
     38 H9         -2.0385   -0.2192    0.8348 H         1 <0>         0.0739
     39 H10         1.7100   -0.4190   -3.3092 H         1 <0>         0.1556
     40 H11         3.0173   -1.5675   -3.6955 H         1 <0>         0.0745
     41 H12         0.2280   -1.4930   -4.9361 H         1 <0>         0.0684
     42 H13         1.7605   -1.0771   -5.7416 H         1 <0>         0.0833
     43 H14         1.0643   -3.3724   -6.3383 H         1 <0>         0.0763
     44 H15         2.5658   -3.4044   -5.3834 H         1 <0>         0.0703
     45 H16        -0.2448   -3.8314   -4.2711 H         1 <0>         0.0826
     46 H17         0.9435   -5.1178   -4.5925 H         1 <0>         0.0847
     47 H18         2.5015   -4.1459   -2.9596 H         1 <0>         0.1080
     48 H19         0.1101   -5.4205    0.5608 H         1 <0>         0.0712
     49 H20        -0.1672   -6.7412   -0.5998 H         1 <0>         0.0632
     50 H21         1.9904   -7.7717    0.0574 H         1 <0>         0.0732
     51 H22         2.2676   -6.4509    1.2181 H         1 <0>         0.0745
     52 H23         0.1960   -7.0789    2.4275 H         1 <0>         0.0682
     53 H24        -0.0812   -8.3997    1.2669 H         1 <0>         0.0666
     54 H25         2.0763   -9.4301    1.9241 H         1 <0>         0.0728
     55 H26         2.3535   -8.1093    3.0848 H         1 <0>         0.0739
     56 H27         1.0202   -7.9311    5.1061 H         1 <0>         0.1292
     57 H28        -0.3120   -9.1290    6.7941 H         1 <0>         0.1306
     58 H29        -0.9618  -12.3090    4.0137 H         1 <0>         0.1275
     59 H30         0.3640  -11.1004    2.3282 H         1 <0>         0.1242
     60 H31        -1.1924  -13.3999    5.7864 H         1 <0>         0.0556
     61 H32        -2.5654  -13.1434    6.8898 H         1 <0>         0.1009
     62 H33        -2.6643  -12.5876    5.2017 H         1 <0>         0.0555
@<TRIPOS>BOND
     1    1    2 1
     2    1   30 1
     3    1   31 1
     4    1   32 1
     5    2    3 1
     6    2    4 1
     7    2    5 1
     8    3   33 1
     9    3   34 1
    10    3   35 1
    11    4   36 1
    12    4   37 1
    13    4   38 1
    14    5    6 2
    15    5    7 1
    16    7    8 2
    17    7    9 am
    18    9   14 1
    19    9   10 1
    20   10   11 1
    21   10   39 1
    22   10   40 1
    23   11   12 1
    24   11   41 1
    25   11   42 1
    26   12   13 1
    27   12   43 1
    28   12   44 1
    29   13   14 1
    30   13   45 1
    31   13   46 1
    32   14   15 1
    33   14   47 1
    34   15   16 2
    35   15   17 1
    36   17   18 1
    37   18   19 1
    38   18   48 1
    39   18   49 1
    40   19   20 1
    41   19   50 1
    42   19   51 1
    43   20   21 1
    44   20   52 1
    45   20   53 1
    46   21   22 1
    47   21   54 1
    48   21   55 1
    49   22   27 ar
    50   22   23 ar
    51   23   24 ar
    52   23   56 1
    53   24   25 ar
    54   24   57 1
    55   25   26 ar
    56   25   28 1
    57   26   27 ar
    58   26   58 1
    59   27   59 1
    60   28   29 1
    61   29   60 1
    62   29   61 1
    63   29   62 1
@<TRIPOS>MOLECULE
CHEMBL51710__1
   62    63     0     0     0
SMALL
USER_CHARGES

@<TRIPOS>ATOM
      1 C1         -1.2431    1.3402   -0.5811 C.3       1 <0>        -0.1374
      2 C2         -0.8457   -0.1265   -0.4028 C.3       1 <0>        -0.0919
      3 C3          0.1030   -0.2564    0.7905 C.3       1 <0>        -0.1440
      4 C4         -2.0989   -0.9676   -0.1519 C.3       1 <0>        -0.1453
      5 C5         -0.1543   -0.6148   -1.6496 C.2       1 <0>         0.3698
      6 O1          0.0043    0.1333   -2.5846 O.2       1 <0>        -0.4063
      7 C6          0.3340   -2.0212   -1.7291 C.2       1 <0>         0.4724
      8 O2          0.0465   -2.8136   -0.8560 O.2       1 <0>        -0.4775
      9 N1          1.0946   -2.4126   -2.7706 N.am      1 <0>        -0.5784
     10 C7          1.5793   -1.4337   -3.7532 C.3       1 <0>         0.0722
     11 C8          3.1004   -1.5689   -3.8749 C.3       1 <0>        -0.1394
     12 C9          3.4546   -3.0204   -4.2063 C.3       1 <0>        -0.1194
     13 C10         2.9773   -3.9347   -3.0757 C.3       1 <0>        -0.1253
     14 C11         1.4598   -3.8254   -2.9416 C.3       1 <0>         0.1500
     15 C12         1.0027   -4.6142   -1.7417 C.2       1 <0>         0.4765
     16 O3          1.5358   -4.4476   -0.6703 O.2       1 <0>        -0.4858
     17 O4          0.0032   -5.5019   -1.8632 O.3       1 <0>        -0.3541
     18 C13        -0.3786   -6.2143   -0.6847 C.3       1 <0>         0.0723
     19 C14        -1.5240   -7.1728   -1.0168 C.3       1 <0>        -0.1183
     20 C15        -1.9327   -7.9356    0.2450 C.3       1 <0>        -0.1111
     21 C16        -3.0781   -8.8941   -0.0871 C.3       1 <0>        -0.0739
     22 C17        -3.4807   -9.6454    1.1557 C.ar      1 <0>        -0.1203
     23 C18        -2.8670  -10.8449    1.4662 C.ar      1 <0>        -0.0768
     24 C19        -3.2346  -11.5358    2.6046 C.ar      1 <0>        -0.1497
     25 C20        -4.2200  -11.0249    3.4368 C.ar      1 <0>         0.1224
     26 C21        -4.8338   -9.8209    3.1233 C.ar      1 <0>        -0.2059
     27 C22        -4.4590   -9.1313    1.9865 C.ar      1 <0>        -0.0764
     28 O5         -4.5836  -11.7029    4.5571 O.3       1 <0>        -0.3187
     29 C23        -5.6049  -11.1172    5.3670 C.3       1 <0>         0.0269
     30 H1         -0.3503    1.9394   -0.7598 H         1 <0>         0.0628
     31 H2         -1.9189    1.4327   -1.4312 H         1 <0>         0.0631
     32 H3         -1.7431    1.6933    0.3208 H         1 <0>         0.0701
     33 H4         -0.3970    0.0968    1.6924 H         1 <0>         0.0740
     34 H5          0.3861   -1.3013    0.9176 H         1 <0>         0.0767
     35 H6          0.9958    0.3428    0.6118 H         1 <0>         0.0572
     36 H7         -2.7748   -0.8750   -1.0021 H         1 <0>         0.0565
     37 H8         -1.8158   -2.0125   -0.0249 H         1 <0>         0.0813
     38 H9         -2.5990   -0.6144    0.7499 H         1 <0>         0.0722
     39 H10         1.1167   -1.6275   -4.7210 H         1 <0>         0.0784
     40 H11         1.3275   -0.4267   -3.4207 H         1 <0>         0.1351
     41 H12         3.4613   -0.9158   -4.6694 H         1 <0>         0.0846
     42 H13         3.5673   -1.2869   -2.9312 H         1 <0>         0.0692
     43 H14         2.9673   -3.3096   -5.1374 H         1 <0>         0.0708
     44 H15         4.5348   -3.1143   -4.3177 H         1 <0>         0.0770
     45 H16         3.2505   -4.9655   -3.3014 H         1 <0>         0.0854
     46 H17         3.4454   -3.6304   -2.1395 H         1 <0>         0.0838
     47 H18         0.9873   -4.2186   -3.8417 H         1 <0>         0.1079
     48 H19         0.4737   -6.7821   -0.3113 H         1 <0>         0.0639
     49 H20        -0.7060   -5.5071    0.0774 H         1 <0>         0.0708
     50 H21        -2.3762   -6.6050   -1.3902 H         1 <0>         0.0737
     51 H22        -1.1966   -7.8800   -1.7789 H         1 <0>         0.0737
     52 H23        -1.0805   -8.5034    0.6183 H         1 <0>         0.0676
     53 H24        -2.2601   -7.2284    1.0070 H         1 <0>         0.0674
     54 H25        -3.9303   -8.3263   -0.4605 H         1 <0>         0.0728
     55 H26        -2.7507   -9.6013   -0.8492 H         1 <0>         0.0738
     56 H27        -2.1000  -11.2423    0.8180 H         1 <0>         0.1290
     57 H28        -2.7555  -12.4731    2.8463 H         1 <0>         0.1305
     58 H29        -5.6012   -9.4211    3.7696 H         1 <0>         0.1276
     59 H30        -4.9335   -8.1918    1.7443 H         1 <0>         0.1242
     60 H31        -6.5173  -11.0103    4.7802 H         1 <0>         0.0556
     61 H32        -5.7990  -11.7583    6.2269 H         1 <0>         0.1009
     62 H33        -5.2775  -10.1363    5.7116 H         1 <0>         0.0556
@<TRIPOS>BOND
     1    1    2 1
     2    1   30 1
     3    1   31 1
     4    1   32 1
     5    2    3 1
     6    2    4 1
     7    2    5 1
     8    3   33 1
     9    3   34 1
    10    3   35 1
    11    4   36 1
    12    4   37 1
    13    4   38 1
    14    5    6 2
    15    5    7 1
    16    7    8 2
    17    7    9 am
    18    9   14 1
    19    9   10 1
    20   10   11 1
    21   10   39 1
    22   10   40 1
    23   11   12 1
    24   11   41 1
    25   11   42 1
    26   12   13 1
    27   12   43 1
    28   12   44 1
    29   13   14 1
    30   13   45 1
    31   13   46 1
    32   14   15 1
    33   14   47 1
    34   15   16 2
    35   15   17 1
    36   17   18 1
    37   18   19 1
    38   18   48 1
    39   18   49 1
    40   19   20 1
    41   19   50 1
    42   19   51 1
    43   20   21 1
    44   20   52 1
    45   20   53 1
    46   21   22 1
    47   21   54 1
    48   21   55 1
    49   22   27 ar
    50   22   23 ar
    51   23   24 ar
    52   23   56 1
    53   24   25 ar
    54   24   57 1
    55   25   26 ar
    56   25   28 1
    57   26   27 ar
    58   26   58 1
    59   27   59 1
    60   28   29 1
    61   29   60 1
    62   29   61 1
    63   29   62 1
@<TRIPOS>MOLECULE
CHEMBL417192
   77    79     0     0     0
SMALL
USER_CHARGES

@<TRIPOS>ATOM
      1 C1          5.1837   -1.3213    1.7210 C.3       1 <0>        -0.1379
      2 C2          4.1114   -2.3259    1.2946 C.3       1 <0>        -0.0904
      3 C3          4.5747   -3.7430    1.6381 C.3       1 <0>        -0.1422
      4 C4          2.8062   -2.0230    2.0332 C.3       1 <0>        -0.1434
      5 C5          3.8845   -2.2179   -0.1913 C.2       1 <0>         0.3746
      6 O1          4.5154   -1.4197   -0.8422 O.2       1 <0>        -0.4056
      7 C6          2.8812   -3.0964   -0.8580 C.2       1 <0>         0.4746
      8 O2          2.3279   -3.9732   -0.2270 O.2       1 <0>        -0.4750
      9 N1          2.5886   -2.9170   -2.1613 N.am      1 <0>        -0.5763
     10 C7          3.3514   -1.9604   -2.9749 C.3       1 <0>         0.0473
     11 C8          2.3716   -0.9940   -3.6478 C.3       1 <0>        -0.1351
     12 C9          1.3289   -1.7945   -4.4314 C.3       1 <0>        -0.1200
     13 C10         0.5421   -2.6889   -3.4705 C.3       1 <0>        -0.1216
     14 C11         1.5049   -3.6786   -2.7970 C.3       1 <0>         0.1469
     15 C12         0.7656   -4.4736   -1.7518 C.2       1 <0>         0.4809
     16 O3          0.1539   -3.9034   -0.8797 O.2       1 <0>        -0.4869
     17 O4          0.7866   -5.8152   -1.7898 O.3       1 <0>        -0.3430
     18 C13         0.0640   -6.5045   -0.7676 C.3       1 <0>         0.0964
     19 C14        -1.3733   -6.7455   -1.2333 C.3       1 <0>        -0.1405
     20 C15        -2.0878   -5.4027   -1.3987 C.3       1 <0>        -0.1076
     21 C16        -3.5251   -5.6437   -1.8643 C.3       1 <0>        -0.0820
     22 C17        -4.2289   -4.3211   -2.0272 C.ar      1 <0>        -0.0779
     23 C18        -4.9076   -3.7633   -0.9600 C.ar      1 <0>        -0.1168
     24 C19        -5.5531   -2.5501   -1.1094 C.ar      1 <0>        -0.1172
     25 C20        -5.5195   -1.8944   -2.3259 C.ar      1 <0>        -0.1263
     26 C21        -4.8399   -2.4518   -3.3929 C.ar      1 <0>        -0.1179
     27 C22        -4.1908   -3.6630   -3.2423 C.ar      1 <0>        -0.1189
     28 C23         0.7397   -7.8473   -0.4825 C.3       1 <0>        -0.1153
     29 C24         2.1329   -7.6035    0.1009 C.3       1 <0>        -0.1074
     30 C25         2.8085   -8.9463    0.3860 C.3       1 <0>        -0.0818
     31 C26         4.1808   -8.7062    0.9607 C.ar      1 <0>        -0.0780
     32 C27         5.2720   -8.5920    0.1198 C.ar      1 <0>        -0.1177
     33 C28         6.5308   -8.3717    0.6470 C.ar      1 <0>        -0.1183
     34 C29         6.6982   -8.2652    2.0150 C.ar      1 <0>        -0.1260
     35 C30         5.6069   -8.3784    2.8558 C.ar      1 <0>        -0.1173
     36 C31         4.3475   -8.5944    2.3284 C.ar      1 <0>        -0.1172
     37 H1          6.1136   -1.5371    1.1948 H         1 <0>         0.0629
     38 H2          4.8536   -0.3117    1.4763 H         1 <0>         0.0627
     39 H3          5.3479   -1.3994    2.7958 H         1 <0>         0.0700
     40 H4          4.7389   -3.8211    2.7128 H         1 <0>         0.0714
     41 H5          3.8108   -4.4587    1.3343 H         1 <0>         0.0816
     42 H6          5.5046   -3.9588    1.1119 H         1 <0>         0.0555
     43 H7          2.4761   -1.0134    1.7884 H         1 <0>         0.0562
     44 H8          2.0423   -2.7387    1.7293 H         1 <0>         0.0788
     45 H9          2.9703   -2.1011    3.1079 H         1 <0>         0.0728
     46 H10         4.0355   -1.4015   -2.3363 H         1 <0>         0.1552
     47 H11         3.9161   -2.4977   -3.7369 H         1 <0>         0.0732
     48 H12         1.8728   -0.3934   -2.8871 H         1 <0>         0.0681
     49 H13         2.9157   -0.3402   -4.3293 H         1 <0>         0.0824
     50 H14         0.6450   -1.1086   -4.9313 H         1 <0>         0.0754
     51 H15         1.8303   -2.4136   -5.1754 H         1 <0>         0.0693
     52 H16         0.0606   -2.0723   -2.7115 H         1 <0>         0.0826
     53 H17        -0.2159   -3.2413   -4.0259 H         1 <0>         0.0823
     54 H18         1.9221   -4.3530   -3.5448 H         1 <0>         0.1040
     55 H19         0.0555   -5.9020    0.1406 H         1 <0>         0.0874
     56 H20        -1.3626   -7.2714   -2.1880 H         1 <0>         0.0716
     57 H21        -1.8991   -7.3480   -0.4925 H         1 <0>         0.0797
     58 H22        -2.0985   -4.8768   -0.4440 H         1 <0>         0.0718
     59 H23        -1.5621   -4.8002   -2.1394 H         1 <0>         0.0575
     60 H24        -3.5144   -6.1696   -2.8190 H         1 <0>         0.0702
     61 H25        -4.0509   -6.2462   -1.1235 H         1 <0>         0.0717
     62 H26        -4.9339   -4.2755   -0.0095 H         1 <0>         0.1198
     63 H27        -6.0841   -2.1146   -0.2758 H         1 <0>         0.1208
     64 H28        -6.0244   -0.9469   -2.4428 H         1 <0>         0.1201
     65 H29        -4.8139   -1.9397   -4.3434 H         1 <0>         0.1203
     66 H30        -3.6568   -4.0966   -4.0748 H         1 <0>         0.1182
     67 H31         0.1401   -8.4113    0.2320 H         1 <0>         0.0818
     68 H32         0.8280   -8.4137   -1.4097 H         1 <0>         0.0731
     69 H33         2.7324   -7.0395   -0.6136 H         1 <0>         0.0680
     70 H34         2.0445   -7.0371    1.0280 H         1 <0>         0.0643
     71 H35         2.2090   -9.5103    1.1006 H         1 <0>         0.0712
     72 H36         2.8969   -9.5127   -0.5411 H         1 <0>         0.0713
     73 H37         5.1412   -8.6752   -0.9490 H         1 <0>         0.1187
     74 H38         7.3834   -8.2832   -0.0100 H         1 <0>         0.1196
     75 H39         7.6818   -8.0938    2.4269 H         1 <0>         0.1195
     76 H40         5.7378   -8.2955    3.9247 H         1 <0>         0.1203
     77 H41         3.4943   -8.6792    2.9851 H         1 <0>         0.1197
@<TRIPOS>BOND
     1    1    2 1
     2    1   37 1
     3    1   38 1
     4    1   39 1
     5    2    3 1
     6    2    4 1
     7    2    5 1
     8    3   40 1
     9    3   41 1
    10    3   42 1
    11    4   43 1
    12    4   44 1
    13    4   45 1
    14    5    6 2
    15    5    7 1
    16    7    8 2
    17    7    9 am
    18    9   14 1
    19    9   10 1
    20   10   11 1
    21   10   46 1
    22   10   47 1
    23   11   12 1
    24   11   48 1
    25   11   49 1
    26   12   13 1
    27   12   50 1
    28   12   51 1
    29   13   14 1
    30   13   52 1
    31   13   53 1
    32   14   15 1
    33   14   54 1
    34   15   16 2
    35   15   17 1
    36   17   18 1
    37   18   19 1
    38   18   28 1
    39   18   55 1
    40   19   20 1
    41   19   56 1
    42   19   57 1
    43   20   21 1
    44   20   58 1
    45   20   59 1
    46   21   22 1
    47   21   60 1
    48   21   61 1
    49   22   27 ar
    50   22   23 ar
    51   23   24 ar
    52   23   62 1
    53   24   25 ar
    54   24   63 1
    55   25   26 ar
    56   25   64 1
    57   26   27 ar
    58   26   65 1
    59   27   66 1
    60   28   29 1
    61   28   67 1
    62   28   68 1
    63   29   30 1
    64   29   69 1
    65   29   70 1
    66   30   31 1
    67   30   71 1
    68   30   72 1
    69   31   36 ar
    70   31   32 ar
    71   32   33 ar
    72   32   73 1
    73   33   34 ar
    74   33   74 1
    75   34   35 ar
    76   34   75 1
    77   35   36 ar
    78   35   76 1
    79   36   77 1
@<TRIPOS>MOLECULE
CHEMBL417192__1
   77    79     0     0     0
SMALL
USER_CHARGES

@<TRIPOS>ATOM
      1 C1         -0.9174   -8.6445   -6.9842 C.3       1 <0>        -0.1380
      2 C2         -0.3045   -8.3168   -5.6212 C.3       1 <0>        -0.0919
      3 C3         -1.3863   -8.3994   -4.5424 C.3       1 <0>        -0.1498
      4 C4          0.8067   -9.3206   -5.3070 C.3       1 <0>        -0.1405
      5 C5          0.2703   -6.9241   -5.6506 C.2       1 <0>         0.3664
      6 O1          0.2660   -6.2906   -6.6790 O.2       1 <0>        -0.4070
      7 C6          0.8443   -6.3281   -4.4104 C.2       1 <0>         0.4665
      8 O2          0.5656   -6.7975   -3.3264 O.2       1 <0>        -0.4582
      9 N1          1.6728   -5.2683   -4.4930 N.am      1 <0>        -0.5809
     10 C7          2.1718   -4.8080   -5.7960 C.3       1 <0>         0.0739
     11 C8          1.8607   -3.3153   -5.9439 C.3       1 <0>        -0.1333
     12 C9          2.4377   -2.5570   -4.7463 C.3       1 <0>        -0.1210
     13 C10         1.7838   -3.0613   -3.4579 C.3       1 <0>        -0.1206
     14 C11         2.0891   -4.5474   -3.2824 C.3       1 <0>         0.1488
     15 C12         1.3328   -5.0794   -2.0924 C.2       1 <0>         0.4760
     16 O3          0.4553   -4.4183   -1.5895 O.2       1 <0>        -0.4967
     17 O4          1.6339   -6.2876   -1.5912 O.3       1 <0>        -0.3162
     18 C13         0.9523   -6.6838   -0.3993 C.3       1 <0>         0.0996
     19 C14        -0.4034   -7.2915   -0.7652 C.3       1 <0>        -0.1276
     20 C15        -1.3063   -6.2062   -1.3548 C.3       1 <0>        -0.1055
     21 C16        -2.7062   -6.7782   -1.5874 C.3       1 <0>        -0.0852
     22 C17        -3.6374   -5.6713   -2.0098 C.ar      1 <0>        -0.0715
     23 C18        -4.3351   -4.9534   -1.0564 C.ar      1 <0>        -0.1183
     24 C19        -5.1893   -3.9380   -1.4439 C.ar      1 <0>        -0.1170
     25 C20        -5.3455   -3.6401   -2.7847 C.ar      1 <0>        -0.1280
     26 C21        -4.6471   -4.3573   -3.7380 C.ar      1 <0>        -0.1181
     27 C22        -3.7897   -5.3699   -3.3503 C.ar      1 <0>        -0.1188
     28 C23         1.7920   -7.7223    0.3471 C.3       1 <0>        -0.1142
     29 C24         3.0961   -7.0781    0.8218 C.3       1 <0>        -0.1123
     30 C25         3.9357   -8.1167    1.5683 C.3       1 <0>        -0.0806
     31 C26         5.2202   -7.4822    2.0358 C.ar      1 <0>        -0.0809
     32 C27         6.3360   -7.4980    1.2198 C.ar      1 <0>        -0.1181
     33 C28         7.5142   -6.9160    1.6486 C.ar      1 <0>        -0.1183
     34 C29         7.5766   -6.3177    2.8932 C.ar      1 <0>        -0.1262
     35 C30         6.4606   -6.3010    3.7088 C.ar      1 <0>        -0.1181
     36 C31         5.2811   -6.8793    3.2782 C.ar      1 <0>        -0.1189
     37 H1         -1.7090   -7.9294   -7.2080 H         1 <0>         0.0614
     38 H2         -0.1467   -8.5857   -7.7527 H         1 <0>         0.0628
     39 H3         -1.3332   -9.6519   -6.9629 H         1 <0>         0.0695
     40 H4         -1.8686   -9.3759   -4.5855 H         1 <0>         0.0686
     41 H5         -0.9322   -8.2614   -3.5611 H         1 <0>         0.0922
     42 H6         -2.1288   -7.6196   -4.7120 H         1 <0>         0.0540
     43 H7          1.5774   -9.2618   -6.0756 H         1 <0>         0.0578
     44 H8          1.2433   -9.0871   -4.3360 H         1 <0>         0.0717
     45 H9          0.3909  -10.3280   -5.2857 H         1 <0>         0.0747
     46 H10         3.2493   -4.9639   -5.8504 H         1 <0>         0.0729
     47 H11         1.6793   -5.3646   -6.5933 H         1 <0>         0.1289
     48 H12         2.3099   -2.9394   -6.8632 H         1 <0>         0.0819
     49 H13         0.7810   -3.1706   -5.9803 H         1 <0>         0.0703
     50 H14         3.5139   -2.7223   -4.6961 H         1 <0>         0.0683
     51 H15         2.2391   -1.4914   -4.8613 H         1 <0>         0.0757
     52 H16         2.1781   -2.5047   -2.6077 H         1 <0>         0.0847
     53 H17         0.7048   -2.9190   -3.5176 H         1 <0>         0.0822
     54 H18         3.1597   -4.6816   -3.1272 H         1 <0>         0.1070
     55 H19         0.7999   -5.8132    0.2386 H         1 <0>         0.0709
     56 H20        -0.2600   -8.0837   -1.5000 H         1 <0>         0.0787
     57 H21        -0.8692   -7.7054    0.1291 H         1 <0>         0.0655
     58 H22        -1.3672   -5.3677   -0.6611 H         1 <0>         0.0630
     59 H23        -0.8915   -5.8640   -2.3029 H         1 <0>         0.0792
     60 H24        -2.6637   -7.5358   -2.3700 H         1 <0>         0.0699
     61 H25        -3.0724   -7.2289   -0.6650 H         1 <0>         0.0660
     62 H26        -4.2130   -5.1862   -0.0089 H         1 <0>         0.1189
     63 H27        -5.7349   -3.3777   -0.6991 H         1 <0>         0.1200
     64 H28        -6.0134   -2.8472   -3.0874 H         1 <0>         0.1193
     65 H29        -4.7694   -4.1248   -4.7855 H         1 <0>         0.1184
     66 H30        -3.2412   -5.9278   -4.0948 H         1 <0>         0.1135
     67 H31         1.2339   -8.0899    1.2083 H         1 <0>         0.0808
     68 H32         2.0192   -8.5536   -0.3203 H         1 <0>         0.0757
     69 H33         3.6542   -6.7106   -0.0393 H         1 <0>         0.0676
     70 H34         2.8688   -6.2469    1.4892 H         1 <0>         0.0609
     71 H35         3.3776   -8.4842    2.4294 H         1 <0>         0.0720
     72 H36         4.1630   -8.9479    0.9008 H         1 <0>         0.0730
     73 H37         6.2872   -7.9655    0.2474 H         1 <0>         0.1203
     74 H38         8.3861   -6.9290    1.0114 H         1 <0>         0.1209
     75 H39         8.4973   -5.8636    3.2286 H         1 <0>         0.1205
     76 H40         6.5094   -5.8339    4.6813 H         1 <0>         0.1211
     77 H41         4.4081   -6.8630    3.9139 H         1 <0>         0.1203
@<TRIPOS>BOND
     1    1    2 1
     2    1   37 1
     3    1   38 1
     4    1   39 1
     5    2    3 1
     6    2    4 1
     7    2    5 1
     8    3   40 1
     9    3   41 1
    10    3   42 1
    11    4   43 1
    12    4   44 1
    13    4   45 1
    14    5    6 2
    15    5    7 1
    16    7    8 2
    17    7    9 am
    18    9   14 1
    19    9   10 1
    20   10   11 1
    21   10   46 1
    22   10   47 1
    23   11   12 1
    24   11   48 1
    25   11   49 1
    26   12   13 1
    27   12   50 1
    28   12   51 1
    29   13   14 1
    30   13   52 1
    31   13   53 1
    32   14   15 1
    33   14   54 1
    34   15   16 2
    35   15   17 1
    36   17   18 1
    37   18   19 1
    38   18   28 1
    39   18   55 1
    40   19   20 1
    41   19   56 1
    42   19   57 1
    43   20   21 1
    44   20   58 1
    45   20   59 1
    46   21   22 1
    47   21   60 1
    48   21   61 1
    49   22   27 ar
    50   22   23 ar
    51   23   24 ar
    52   23   62 1
    53   24   25 ar
    54   24   63 1
    55   25   26 ar
    56   25   64 1
    57   26   27 ar
    58   26   65 1
    59   27   66 1
    60   28   29 1
    61   28   67 1
    62   28   68 1
    63   29   30 1
    64   29   69 1
    65   29   70 1
    66   30   31 1
    67   30   71 1
    68   30   72 1
    69   31   36 ar
    70   31   32 ar
    71   32   33 ar
    72   32   73 1
    73   33   34 ar
    74   33   74 1
    75   34   35 ar
    76   34   75 1
    77   35   36 ar
    78   35   76 1
    79   36   77 1
@<TRIPOS>MOLECULE
CHEMBL342735
   66    67     0     0     0
SMALL
USER_CHARGES

@<TRIPOS>ATOM
      1 C1         -0.1662    1.5252    0.1024 C.3       1 <0>        -0.1557
      2 C2         -0.1161   -0.0037    0.0741 C.3       1 <0>        -0.1084
      3 C3          0.6583   -0.5113    1.2920 C.3       1 <0>        -0.0870
      4 C4          2.0827    0.0463    1.2594 C.3       1 <0>        -0.1470
      5 C5         -0.0417   -0.0476    2.5710 C.3       1 <0>        -0.1460
      6 C6          0.7076   -2.0172    1.2641 C.2       1 <0>         0.3756
      7 O1          0.1779   -2.6222    0.3628 O.2       1 <0>        -0.4049
      8 C7          1.4102   -2.7603    2.3489 C.2       1 <0>         0.4743
      9 O2          2.0364   -2.1534    3.1931 O.2       1 <0>        -0.4781
     10 N1          1.3501   -4.1060    2.3922 N.am      1 <0>        -0.5770
     11 C8          0.7217   -4.8628    1.3008 C.3       1 <0>         0.0473
     12 C9         -0.3443   -5.7896    1.8934 C.3       1 <0>        -0.1355
     13 C10         0.2903   -6.6620    2.9790 C.3       1 <0>        -0.1202
     14 C11         0.8328   -5.7714    4.0991 C.3       1 <0>        -0.1231
     15 C12         1.9171   -4.8446    3.5287 C.3       1 <0>         0.1475
     16 C13         2.3635   -3.8728    4.5906 C.2       1 <0>         0.4799
     17 O3          1.5503   -3.1828    5.1583 O.2       1 <0>        -0.4940
     18 O4          3.6646   -3.7739    4.9056 O.3       1 <0>        -0.3505
     19 C14         4.0164   -2.8322    5.9212 C.3       1 <0>         0.0741
     20 C15         5.5302   -2.8611    6.1412 C.3       1 <0>        -0.1098
     21 C16         5.9068   -1.8529    7.2287 C.3       1 <0>        -0.0673
     22 C17         7.3979   -1.8813    7.4454 C.ar      1 <0>        -0.0727
     23 C18         7.9358   -2.6695    8.4445 C.ar      1 <0>        -0.1098
     24 C19         9.3079   -2.6960    8.6436 C.ar      1 <0>         0.0944
     25 C20        10.1404   -1.9313    7.8396 C.ar      1 <0>        -0.1711
     26 C21         9.6027   -1.1434    6.8408 C.ar      1 <0>        -0.1666
     27 C22         8.2305   -1.1209    6.6382 C.ar      1 <0>         0.0966
     28 O5          7.7016   -0.3495    5.6512 O.3       1 <0>        -0.3118
     29 C23         8.6179    0.4078    4.8581 C.3       1 <0>         0.0269
     30 O6          9.8373   -3.4714    9.6273 O.3       1 <0>        -0.3175
     31 C24        11.2584   -3.4504    9.7759 C.3       1 <0>         0.0275
     32 H1          0.8486    1.9225    0.0792 H         1 <0>         0.0602
     33 H2         -0.7179    1.8869   -0.7653 H         1 <0>         0.0586
     34 H3         -0.6649    1.8556    1.0136 H         1 <0>         0.0603
     35 H4         -1.1309   -0.4009    0.0973 H         1 <0>         0.0695
     36 H5          0.3826   -0.3340   -0.8371 H         1 <0>         0.0696
     37 H6          2.0471    1.1356    1.2796 H         1 <0>         0.0758
     38 H7          2.6344   -0.3153    2.1271 H         1 <0>         0.0811
     39 H8          2.5814   -0.2840    0.3482 H         1 <0>         0.0563
     40 H9         -1.0565   -0.4448    2.5943 H         1 <0>         0.0566
     41 H10         0.5100   -0.4092    3.4388 H         1 <0>         0.0783
     42 H11        -0.0774    1.0416    2.5913 H         1 <0>         0.0765
     43 H12         0.2555   -4.1719    0.5983 H         1 <0>         0.1555
     44 H13         1.4768   -5.4566    0.7858 H         1 <0>         0.0741
     45 H14        -1.1448   -5.1917    2.3290 H         1 <0>         0.0684
     46 H15        -0.7512   -6.4257    1.1073 H         1 <0>         0.0829
     47 H16        -0.4605   -7.3397    3.3853 H         1 <0>         0.0762
     48 H17         1.1069   -7.2413    2.5480 H         1 <0>         0.0701
     49 H18         0.0212   -5.1736    4.5139 H         1 <0>         0.0827
     50 H19         1.2638   -6.3944    4.8828 H         1 <0>         0.0848
     51 H20         2.7678   -5.4370    3.1918 H         1 <0>         0.1077
     52 H21         3.7134   -1.8323    5.6103 H         1 <0>         0.0725
     53 H22         3.5092   -3.0931    6.8500 H         1 <0>         0.0640
     54 H23         5.8331   -3.8609    6.4521 H         1 <0>         0.0728
     55 H24         6.0374   -2.6001    5.2124 H         1 <0>         0.0769
     56 H25         5.6039   -0.8530    6.9178 H         1 <0>         0.0833
     57 H26         5.3996   -2.1138    8.1575 H         1 <0>         0.0770
     58 H27         7.2876   -3.2646    9.0707 H         1 <0>         0.1385
     59 H28        11.2090   -1.9517    7.9949 H         1 <0>         0.1305
     60 H29        10.2508   -0.5474    6.2154 H         1 <0>         0.1313
     61 H30         8.0664    0.9771    4.1099 H         1 <0>         0.1004
     62 H31         9.1734    1.0925    5.4991 H         1 <0>         0.0540
     63 H32         9.3128   -0.2686    4.3605 H         1 <0>         0.0540
     64 H33        11.5480   -4.1104   10.5936 H         1 <0>         0.1006
     65 H34        11.7255   -3.7904    8.8516 H         1 <0>         0.0544
     66 H35        11.5857   -2.4342    9.9959 H         1 <0>         0.0544
@<TRIPOS>BOND
     1    1    2 1
     2    1   32 1
     3    1   33 1
     4    1   34 1
     5    2    3 1
     6    2   35 1
     7    2   36 1
     8    3    4 1
     9    3    5 1
    10    3    6 1
    11    4   37 1
    12    4   38 1
    13    4   39 1
    14    5   40 1
    15    5   41 1
    16    5   42 1
    17    6    7 2
    18    6    8 1
    19    8    9 2
    20    8   10 am
    21   10   15 1
    22   10   11 1
    23   11   12 1
    24   11   43 1
    25   11   44 1
    26   12   13 1
    27   12   45 1
    28   12   46 1
    29   13   14 1
    30   13   47 1
    31   13   48 1
    32   14   15 1
    33   14   49 1
    34   14   50 1
    35   15   16 1
    36   15   51 1
    37   16   17 2
    38   16   18 1
    39   18   19 1
    40   19   20 1
    41   19   52 1
    42   19   53 1
    43   20   21 1
    44   20   54 1
    45   20   55 1
    46   21   22 1
    47   21   56 1
    48   21   57 1
    49   22   27 ar
    50   22   23 ar
    51   23   24 ar
    52   23   58 1
    53   24   25 ar
    54   24   30 1
    55   25   26 ar
    56   25   59 1
    57   26   27 ar
    58   26   60 1
    59   27   28 1
    60   28   29 1
    61   29   61 1
    62   29   62 1
    63   29   63 1
    64   30   31 1
    65   31   64 1
    66   31   65 1
    67   31   66 1
@<TRIPOS>MOLECULE
CHEMBL342735__1
   66    67     0     0     0
SMALL
USER_CHARGES

@<TRIPOS>ATOM
      1 C1         -1.0789    1.5332    0.8564 C.3       1 <0>        -0.1558
      2 C2         -1.0706    0.0033    0.8580 C.3       1 <0>        -0.1080
      3 C3         -0.0009   -0.4999    1.8292 C.3       1 <0>        -0.0877
      4 C4          1.3705    0.0170    1.3900 C.3       1 <0>        -0.1457
      5 C5         -0.3108    0.0099    3.2381 C.3       1 <0>        -0.1473
      6 C6          0.0072   -2.0069    1.8308 C.2       1 <0>         0.3702
      7 O1         -0.7633   -2.6157    1.1276 O.2       1 <0>        -0.4071
      8 C7          0.9663   -2.7463    2.7005 C.2       1 <0>         0.4724
      9 O2          1.6359   -2.1442    3.5142 O.2       1 <0>        -0.4764
     10 N1          1.0896   -4.0832    2.5831 N.am      1 <0>        -0.5785
     11 C8          0.4039   -4.8063    1.5034 C.3       1 <0>         0.0723
     12 C9          1.4340   -5.6439    0.7391 C.3       1 <0>        -0.1392
     13 C10         2.1831   -6.5458    1.7228 C.3       1 <0>        -0.1194
     14 C11         2.9255   -5.6825    2.7454 C.3       1 <0>        -0.1251
     15 C12         1.9171   -4.8446    3.5287 C.3       1 <0>         0.1500
     16 C13         2.6518   -3.8927    4.4371 C.2       1 <0>         0.4766
     17 O3          3.5314   -3.1925    3.9943 O.2       1 <0>        -0.4861
     18 O4          2.3291   -3.8226    5.7381 O.3       1 <0>        -0.3532
     19 C14         3.0666   -2.8984    6.5406 C.3       1 <0>         0.0741
     20 C15         2.5612   -2.9594    7.9835 C.3       1 <0>        -0.1098
     21 C16         3.3509   -1.9699    8.8427 C.3       1 <0>        -0.0674
     22 C17         2.8531   -2.0300   10.2638 C.ar      1 <0>        -0.0724
     23 C18         1.8907   -1.1384   10.6969 C.ar      1 <0>        -0.1095
     24 C19         1.4323   -1.1940   12.0045 C.ar      1 <0>         0.0947
     25 C20         1.9401   -2.1448   12.8777 C.ar      1 <0>        -0.1713
     26 C21         2.9021   -3.0361   12.4448 C.ar      1 <0>        -0.1664
     27 C22         3.3569   -2.9839   11.1352 C.ar      1 <0>         0.0960
     28 O5          4.3000   -3.8651   10.7074 O.3       1 <0>        -0.3126
     29 C23         4.7742   -4.8205   11.6584 C.3       1 <0>         0.0268
     30 O6          0.4854   -0.3161   12.4310 O.3       1 <0>        -0.3173
     31 C24         0.0595   -0.4308   13.7902 C.3       1 <0>         0.0275
     32 H1         -0.1019    1.9015    0.5434 H         1 <0>         0.0601
     33 H2         -1.8410    1.8917    0.1644 H         1 <0>         0.0585
     34 H3         -1.2997    1.8965    1.8601 H         1 <0>         0.0603
     35 H4         -2.0477   -0.3650    1.1709 H         1 <0>         0.0694
     36 H5         -0.8499   -0.3599   -0.1457 H         1 <0>         0.0690
     37 H6          1.3646    1.1070    1.3888 H         1 <0>         0.0768
     38 H7          2.1326   -0.3415    2.0819 H         1 <0>         0.0765
     39 H8          1.5913   -0.3462    0.3863 H         1 <0>         0.0566
     40 H9         -1.2878   -0.3584    3.5510 H         1 <0>         0.0561
     41 H10         0.4513   -0.3486    3.9301 H         1 <0>         0.0814
     42 H11        -0.3167    1.0999    3.2369 H         1 <0>         0.0752
     43 H12        -0.3570   -5.4612    1.9280 H         1 <0>         0.0780
     44 H13        -0.0628   -4.0926    0.8245 H         1 <0>         0.1351
     45 H14         0.9246   -6.2588   -0.0028 H         1 <0>         0.0843
     46 H15         2.1424   -4.9826    0.2400 H         1 <0>         0.0692
     47 H16         1.4714   -7.1896    2.2395 H         1 <0>         0.0706
     48 H17         2.8997   -7.1607    1.1782 H         1 <0>         0.0767
     49 H18         3.4776   -6.3249    3.4314 H         1 <0>         0.0853
     50 H19         3.6197   -5.0209    2.2273 H         1 <0>         0.0839
     51 H20         1.2824   -5.5027    4.1221 H         1 <0>         0.1075
     52 H21         4.1248   -3.1588    6.5150 H         1 <0>         0.0652
     53 H22         2.9311   -1.8897    6.1505 H         1 <0>         0.0716
     54 H23         1.5031   -2.6990    8.0091 H         1 <0>         0.0733
     55 H24         2.6968   -3.9681    8.3736 H         1 <0>         0.0760
     56 H25         4.4090   -2.2303    8.8170 H         1 <0>         0.0828
     57 H26         3.2153   -0.9612    8.4526 H         1 <0>         0.0777
     58 H27         1.4957   -0.3979   10.0172 H         1 <0>         0.1386
     59 H28         1.5833   -2.1878   13.8962 H         1 <0>         0.1305
     60 H29         3.2979   -3.7759   13.1248 H         1 <0>         0.1313
     61 H30         5.5210   -5.4607   11.1888 H         1 <0>         0.1004
     62 H31         5.2226   -4.2993   12.5043 H         1 <0>         0.0541
     63 H32         3.9408   -5.4301   12.0075 H         1 <0>         0.0542
     64 H33        -0.6959    0.3267   13.9994 H         1 <0>         0.1007
     65 H34        -0.3637   -1.4215   13.9560 H         1 <0>         0.0544
     66 H35         0.9133   -0.2850   14.4520 H         1 <0>         0.0545
@<TRIPOS>BOND
     1    1    2 1
     2    1   32 1
     3    1   33 1
     4    1   34 1
     5    2    3 1
     6    2   35 1
     7    2   36 1
     8    3    4 1
     9    3    5 1
    10    3    6 1
    11    4   37 1
    12    4   38 1
    13    4   39 1
    14    5   40 1
    15    5   41 1
    16    5   42 1
    17    6    7 2
    18    6    8 1
    19    8    9 2
    20    8   10 am
    21   10   15 1
    22   10   11 1
    23   11   12 1
    24   11   43 1
    25   11   44 1
    26   12   13 1
    27   12   45 1
    28   12   46 1
    29   13   14 1
    30   13   47 1
    31   13   48 1
    32   14   15 1
    33   14   49 1
    34   14   50 1
    35   15   16 1
    36   15   51 1
    37   16   17 2
    38   16   18 1
    39   18   19 1
    40   19   20 1
    41   19   52 1
    42   19   53 1
    43   20   21 1
    44   20   54 1
    45   20   55 1
    46   21   22 1
    47   21   56 1
    48   21   57 1
    49   22   27 ar
    50   22   23 ar
    51   23   24 ar
    52   23   58 1
    53   24   25 ar
    54   24   30 1
    55   25   26 ar
    56   25   59 1
    57   26   27 ar
    58   26   60 1
    59   27   28 1
    60   28   29 1
    61   29   61 1
    62   29   62 1
    63   29   63 1
    64   30   31 1
    65   31   64 1
    66   31   65 1
    67   31   66 1
@<TRIPOS>MOLECULE
CHEMBL436478
   76    81     0     0     0
SMALL
USER_CHARGES

@<TRIPOS>ATOM
      1 C1          0.6971    1.4057    0.7244 C.3       1 <0>         0.0195
      2 O1          0.4945    0.0129    0.4772 O.3       1 <0>        -0.2985
      3 C2         -0.7823   -0.3938    0.2465 C.ar      1 <0>         0.1173
      4 C3         -1.8165    0.5282    0.2521 C.ar      1 <0>        -0.1652
      5 C4         -3.1143    0.1131    0.0178 C.ar      1 <0>        -0.0627
      6 C5         -3.3845   -1.2215   -0.2226 C.ar      1 <0>        -0.1422
      7 C6         -2.3585   -2.1473   -0.2303 C.ar      1 <0>        -0.1002
      8 C7         -1.0531   -1.7374   -0.0017 C.ar      1 <0>         0.1023
      9 N1         -0.0097   -2.6741   -0.0143 N.am      1 <0>        -0.5217
     10 C8          0.4393   -3.2071   -1.2310 C.ar      1 <0>         0.1267
     11 C9          1.4645   -2.5837   -1.9273 C.ar      1 <0>        -0.0595
     12 C10         1.9053   -3.1109   -3.1263 C.ar      1 <0>        -0.1508
     13 C11         1.3269   -4.2593   -3.6348 C.ar      1 <0>        -0.0725
     14 C12         0.3044   -4.8858   -2.9468 C.ar      1 <0>        -0.2049
     15 C13        -0.1391   -4.3671   -1.7410 C.ar      1 <0>         0.1368
     16 O2         -1.1405   -4.9856   -1.0602 O.3       1 <0>        -0.3100
     17 C14        -1.6860   -6.1706   -1.6433 C.3       1 <0>         0.0251
     18 C15         0.5616   -3.0620    1.1431 C.2       1 <0>         0.7370
     19 O3          1.5772   -3.7303    1.1257 O.2       1 <0>        -0.5650
     20 N2          0.0071   -2.7092    2.3197 N.am      1 <0>        -0.6089
     21 C16         0.7037   -2.8871    3.6063 C.3       1 <0>         0.1390
     22 C17        -0.1483   -3.8183    4.4794 C.3       1 <0>        -0.1252
     23 C18        -1.5397   -3.2056    4.6543 C.3       1 <0>        -0.1287
     24 C19        -2.2054   -3.0343    3.2875 C.3       1 <0>        -0.1218
     25 C20        -1.3423   -2.1097    2.4126 C.3       1 <0>         0.0630
     26 C21        -1.1712   -0.7835    3.1137 C.2       1 <0>         0.5254
     27 O4         -2.0030    0.0855    2.9587 O.2       1 <0>        -0.5325
     28 N3         -0.1144   -0.5518    3.9053 N.am      1 <0>        -0.5903
     29 C22         0.8569   -1.5456    4.3000 C.3       1 <0>         0.1975
     30 C23         2.2527   -1.0068    4.1419 C.ar      1 <0>        -0.1613
     31 C24         2.4925    0.3341    3.9291 C.ar      1 <0>         0.0102
     32 C25         3.8000    0.7847    3.8067 C.ar      1 <0>        -0.1913
     33 C26         4.8622   -0.1004    3.8855 C.ar      1 <0>         0.1724
     34 C27         4.6208   -1.4500    4.0894 C.ar      1 <0>        -0.2933
     35 C28         3.3180   -1.8999    4.2180 C.ar      1 <0>         0.1804
     36 O5          3.0773   -3.2221    4.4198 O.3       1 <0>        -0.3011
     37 C29         4.2140   -4.0854    4.4881 C.3       1 <0>         0.0212
     38 O6          6.1374    0.3529    3.7627 O.3       1 <0>        -0.3129
     39 C30         7.1825   -0.6174    3.8545 C.3       1 <0>         0.0261
     40 C31         1.3869    1.3488    3.8049 C.3       1 <0>        -0.1152
     41 C32         0.0982    0.8191    4.4166 C.3       1 <0>         0.1022
     42 H1          1.7574    1.5944    0.8924 H         1 <0>         0.1009
     43 H2          0.3578    1.9807   -0.1372 H         1 <0>         0.0581
     44 H3          0.1307    1.7044    1.6064 H         1 <0>         0.0635
     45 H4         -1.6089    1.5713    0.4398 H         1 <0>         0.1318
     46 H5         -3.9192    0.8331    0.0229 H         1 <0>         0.1305
     47 H6         -4.4000   -1.5413   -0.4044 H         1 <0>         0.1329
     48 H7         -2.5724   -3.1891   -0.4183 H         1 <0>         0.1429
     49 H8          1.9178   -1.6864   -1.5326 H         1 <0>         0.1311
     50 H9          2.7033   -2.6245   -3.6676 H         1 <0>         0.1286
     51 H10         1.6746   -4.6678   -4.5722 H         1 <0>         0.1285
     52 H11        -0.1457   -5.7822   -3.3471 H         1 <0>         0.1326
     53 H12        -0.8998   -6.9179   -1.7506 H         1 <0>         0.0565
     54 H13        -2.4743   -6.5623   -1.0004 H         1 <0>         0.1007
     55 H14        -2.1001   -5.9356   -2.6238 H         1 <0>         0.0570
     56 H15         1.6868   -3.3253    3.4338 H         1 <0>         0.1535
     57 H16        -0.2366   -4.7914    3.9962 H         1 <0>         0.0759
     58 H17         0.3235   -3.9360    5.4549 H         1 <0>         0.0802
     59 H18        -2.1496   -3.8624    5.2746 H         1 <0>         0.0726
     60 H19        -1.4493   -2.2329    5.1378 H         1 <0>         0.0638
     61 H20        -2.3029   -4.0074    2.8061 H         1 <0>         0.0794
     62 H21        -3.1932   -2.5921    3.4171 H         1 <0>         0.0800
     63 H22        -1.7820   -1.9854    1.4230 H         1 <0>         0.1792
     64 H23         0.7151   -1.7210    5.3664 H         1 <0>         0.0796
     65 H24         3.9906    1.8358    3.6481 H         1 <0>         0.1316
     66 H25         5.4442   -2.1465    4.1473 H         1 <0>         0.1373
     67 H26         3.8822   -5.1107    4.6518 H         1 <0>         0.1039
     68 H27         4.7702   -4.0285    3.5524 H         1 <0>         0.0581
     69 H28         4.8566   -3.7756    5.3122 H         1 <0>         0.0561
     70 H29         7.0587   -1.3604    3.0666 H         1 <0>         0.0562
     71 H30         8.1476   -0.1239    3.7400 H         1 <0>         0.1029
     72 H31         7.1384   -1.1080    4.8268 H         1 <0>         0.0559
     73 H32         1.6794    2.2614    4.3242 H         1 <0>         0.0929
     74 H33         1.2258    1.5746    2.7507 H         1 <0>         0.0961
     75 H34        -0.7302    1.4594    4.1135 H         1 <0>         0.1038
     76 H35         0.1738    0.8007    5.5038 H         1 <0>         0.0789
@<TRIPOS>BOND
     1    1    2 1
     2    1   42 1
     3    1   43 1
     4    1   44 1
     5    2    3 1
     6    3    8 ar
     7    3    4 ar
     8    4    5 ar
     9    4   45 1
    10    5    6 ar
    11    5   46 1
    12    6    7 ar
    13    6   47 1
    14    7    8 ar
    15    7   48 1
    16    8    9 1
    17    9   10 1
    18    9   18 am
    19   10   15 ar
    20   10   11 ar
    21   11   12 ar
    22   11   49 1
    23   12   13 ar
    24   12   50 1
    25   13   14 ar
    26   13   51 1
    27   14   15 ar
    28   14   52 1
    29   15   16 1
    30   16   17 1
    31   17   53 1
    32   17   54 1
    33   17   55 1
    34   18   19 2
    35   18   20 am
    36   20   25 1
    37   20   21 1
    38   21   29 1
    39   21   22 1
    40   21   56 1
    41   22   23 1
    42   22   57 1
    43   22   58 1
    44   23   24 1
    45   23   59 1
    46   23   60 1
    47   24   25 1
    48   24   61 1
    49   24   62 1
    50   25   26 1
    51   25   63 1
    52   26   27 2
    53   26   28 am
    54   28   41 1
    55   28   29 1
    56   29   30 1
    57   29   64 1
    58   30   35 ar
    59   30   31 ar
    60   31   32 ar
    61   31   40 1
    62   32   33 ar
    63   32   65 1
    64   33   34 ar
    65   33   38 1
    66   34   35 ar
    67   34   66 1
    68   35   36 1
    69   36   37 1
    70   37   67 1
    71   37   68 1
    72   37   69 1
    73   38   39 1
    74   39   70 1
    75   39   71 1
    76   39   72 1
    77   40   41 1
    78   40   73 1
    79   40   74 1
    80   41   75 1
    81   41   76 1
@<TRIPOS>MOLECULE
CHEMBL436478__1
   76    81     0     0     0
SMALL
USER_CHARGES

@<TRIPOS>ATOM
      1 C1          1.1710    1.3573    0.9302 C.3       1 <0>         0.0272
      2 O1          0.8276    0.0064    0.6151 O.3       1 <0>        -0.3037
      3 C2         -0.4771   -0.2482    0.3287 C.ar      1 <0>         0.1237
      4 C3         -1.4051    0.7804    0.3450 C.ar      1 <0>        -0.1818
      5 C4         -2.7313    0.5199    0.0541 C.ar      1 <0>        -0.0599
      6 C5         -3.1359   -0.7660   -0.2537 C.ar      1 <0>        -0.1414
      7 C6         -2.2163   -1.7975   -0.2725 C.ar      1 <0>        -0.0947
      8 C7         -0.8828   -1.5427    0.0127 C.ar      1 <0>         0.0988
      9 N1          0.0530   -2.5866   -0.0110 N.am      1 <0>        -0.5209
     10 C8          0.4598   -3.1359   -1.2353 C.ar      1 <0>         0.1246
     11 C9          1.5568   -2.6110   -1.9028 C.ar      1 <0>        -0.0587
     12 C10         1.9558   -3.1540   -3.1093 C.ar      1 <0>        -0.1505
     13 C11         1.2641   -4.2203   -3.6541 C.ar      1 <0>        -0.0721
     14 C12         0.1696   -4.7483   -2.9948 C.ar      1 <0>        -0.2047
     15 C13        -0.2331   -4.2136   -1.7817 C.ar      1 <0>         0.1361
     16 O2         -1.3057   -4.7357   -1.1292 O.3       1 <0>        -0.3106
     17 C14        -1.9676   -5.8401   -1.7491 C.3       1 <0>         0.0250
     18 C15         0.5616   -3.0620    1.1431 C.2       1 <0>         0.7378
     19 O3          1.5206   -3.8093    1.1226 O.2       1 <0>        -0.5625
     20 N2          0.0074   -2.7094    2.3192 N.am      1 <0>        -0.6195
     21 C16         0.7000   -2.8932    3.6123 C.3       1 <0>         0.1633
     22 C17        -0.1607   -3.7592    4.5208 C.3       1 <0>        -0.1162
     23 C18        -1.5976   -3.2464    4.6091 C.3       1 <0>        -0.1283
     24 C19        -2.1942   -3.1309    3.2036 C.3       1 <0>        -0.1235
     25 C20        -1.3387   -2.1101    2.4247 C.3       1 <0>         0.0835
     26 C21        -1.2226   -0.8890    3.3000 C.2       1 <0>         0.5172
     27 O4         -2.1225   -0.0737    3.2669 O.2       1 <0>        -0.5352
     28 N3         -0.1849   -0.6520    4.1243 N.am      1 <0>        -0.5946
     29 C22         0.9884   -1.5202    4.1963 C.3       1 <0>         0.2049
     30 C23         1.5336   -1.5991    5.5925 C.ar      1 <0>        -0.1610
     31 C24         1.4448   -0.4586    6.3848 C.ar      1 <0>        -0.0005
     32 C25         1.8360   -0.4768    7.7040 C.ar      1 <0>        -0.1805
     33 C26         2.3988   -1.6247    8.2425 C.ar      1 <0>         0.1775
     34 C27         2.5855   -2.7323    7.4338 C.ar      1 <0>        -0.3051
     35 C28         2.1793   -2.7098    6.1025 C.ar      1 <0>         0.1903
     36 O5          2.4876   -3.7823    5.3264 O.3       1 <0>        -0.3057
     37 C29         3.1557   -4.8732    5.9633 C.3       1 <0>         0.0241
     38 O6          2.7642   -1.6601    9.5491 O.3       1 <0>        -0.3103
     39 C30         3.3368   -2.8779   10.0299 C.3       1 <0>         0.0255
     40 C31         0.9697    0.8220    5.7500 C.3       1 <0>        -0.0918
     41 C32        -0.2969    0.5589    4.9501 C.3       1 <0>         0.1201
     42 H1          2.2391    1.4217    1.1378 H         1 <0>         0.1001
     43 H2          0.9255    2.0011    0.0856 H         1 <0>         0.0573
     44 H3          0.6103    1.6794    1.8077 H         1 <0>         0.0544
     45 H4         -1.0925    1.7859    0.5854 H         1 <0>         0.1322
     46 H5         -3.4534    1.3229    0.0677 H         1 <0>         0.1308
     47 H6         -4.1731   -0.9649   -0.4795 H         1 <0>         0.1333
     48 H7         -2.5350   -2.8009   -0.5132 H         1 <0>         0.1433
     49 H8          2.0987   -1.7781   -1.4798 H         1 <0>         0.1322
     50 H9          2.8098   -2.7444   -3.6283 H         1 <0>         0.1292
     51 H10         1.5794   -4.6414   -4.5972 H         1 <0>         0.1287
     52 H11        -0.3690   -5.5806   -3.4233 H         1 <0>         0.1327
     53 H12        -1.2655   -6.6656   -1.8657 H         1 <0>         0.0567
     54 H13        -2.8032   -6.1591   -1.1260 H         1 <0>         0.1007
     55 H14        -2.3391   -5.5380   -2.7283 H         1 <0>         0.0572
     56 H15         1.6445   -3.4036    3.4025 H         1 <0>         0.1277
     57 H16        -0.1763   -4.7819    4.1318 H         1 <0>         0.0707
     58 H17         0.2600   -3.7831    5.5258 H         1 <0>         0.0774
     59 H18        -2.1906   -3.9570    5.1918 H         1 <0>         0.0684
     60 H19        -1.6126   -2.2802    5.1071 H         1 <0>         0.0665
     61 H20        -2.1552   -4.0996    2.7065 H         1 <0>         0.0816
     62 H21        -3.2229   -2.7823    3.2655 H         1 <0>         0.0807
     63 H22        -1.7656   -1.8786    1.4527 H         1 <0>         0.1712
     64 H23         1.7666   -1.0594    3.5682 H         1 <0>         0.0748
     65 H24         1.7025    0.4043    8.3149 H         1 <0>         0.1363
     66 H25         3.0542   -3.6206    7.8330 H         1 <0>         0.1390
     67 H26         3.3424   -5.6609    5.2333 H         1 <0>         0.1054
     68 H27         4.1037   -4.5279    6.3757 H         1 <0>         0.0570
     69 H28         2.5305   -5.2631    6.7666 H         1 <0>         0.0563
     70 H29         4.2428   -3.1008    9.4663 H         1 <0>         0.0566
     71 H30         3.5830   -2.7715   11.0863 H         1 <0>         0.1039
     72 H31         2.6213   -3.6905    9.9037 H         1 <0>         0.0567
     73 H32         0.7555    1.5494    6.5366 H         1 <0>         0.0968
     74 H33         1.7496    1.2157    5.0988 H         1 <0>         0.0906
     75 H34        -0.4937    1.4146    4.3033 H         1 <0>         0.0777
     76 H35        -1.1353    0.4413    5.6374 H         1 <0>         0.0701
@<TRIPOS>BOND
     1    1    2 1
     2    1   42 1
     3    1   43 1
     4    1   44 1
     5    2    3 1
     6    3    8 ar
     7    3    4 ar
     8    4    5 ar
     9    4   45 1
    10    5    6 ar
    11    5   46 1
    12    6    7 ar
    13    6   47 1
    14    7    8 ar
    15    7   48 1
    16    8    9 1
    17    9   10 1
    18    9   18 am
    19   10   15 ar
    20   10   11 ar
    21   11   12 ar
    22   11   49 1
    23   12   13 ar
    24   12   50 1
    25   13   14 ar
    26   13   51 1
    27   14   15 ar
    28   14   52 1
    29   15   16 1
    30   16   17 1
    31   17   53 1
    32   17   54 1
    33   17   55 1
    34   18   19 2
    35   18   20 am
    36   20   25 1
    37   20   21 1
    38   21   29 1
    39   21   22 1
    40   21   56 1
    41   22   23 1
    42   22   57 1
    43   22   58 1
    44   23   24 1
    45   23   59 1
    46   23   60 1
    47   24   25 1
    48   24   61 1
    49   24   62 1
    50   25   26 1
    51   25   63 1
    52   26   27 2
    53   26   28 am
    54   28   41 1
    55   28   29 1
    56   29   30 1
    57   29   64 1
    58   30   35 ar
    59   30   31 ar
    60   31   32 ar
    61   31   40 1
    62   32   33 ar
    63   32   65 1
    64   33   34 ar
    65   33   38 1
    66   34   35 ar
    67   34   66 1
    68   35   36 1
    69   36   37 1
    70   37   67 1
    71   37   68 1
    72   37   69 1
    73   38   39 1
    74   39   70 1
    75   39   71 1
    76   39   72 1
    77   40   41 1
    78   40   73 1
    79   40   74 1
    80   41   75 1
    81   41   76 1
@<TRIPOS>MOLECULE
CHEMBL436478__2
   76    81     0     0     0
SMALL
USER_CHARGES

@<TRIPOS>ATOM
      1 C1          0.5658    1.4008    0.7695 C.3       1 <0>         0.0210
      2 O1          0.4045    0.0054    0.5072 O.3       1 <0>        -0.3030
      3 C2         -0.8584   -0.4346    0.2616 C.ar      1 <0>         0.1281
      4 C3         -1.9181    0.4579    0.2671 C.ar      1 <0>        -0.1972
      5 C4         -3.2017    0.0089    0.0176 C.ar      1 <0>        -0.0714
      6 C5         -3.4323   -1.3304   -0.2379 C.ar      1 <0>        -0.1373
      7 C6         -2.3806   -2.2269   -0.2456 C.ar      1 <0>        -0.0910
      8 C7         -1.0892   -1.7828   -0.0019 C.ar      1 <0>         0.1015
      9 N1         -0.0198   -2.6897   -0.0144 N.am      1 <0>        -0.5210
     10 C8          0.4446   -3.2091   -1.2312 C.ar      1 <0>         0.1243
     11 C9          1.4522   -2.5567   -1.9265 C.ar      1 <0>        -0.0589
     12 C10         1.9083   -3.0705   -3.1256 C.ar      1 <0>        -0.1509
     13 C11         1.3628   -4.2345   -3.6351 C.ar      1 <0>        -0.0716
     14 C12         0.3580   -4.8900   -2.9479 C.ar      1 <0>        -0.2047
     15 C13        -0.1005   -4.3847   -1.7421 C.ar      1 <0>         0.1370
     16 O2         -1.0845   -5.0315   -1.0621 O.3       1 <0>        -0.3106
     17 C14        -1.5961   -6.2312   -1.6462 C.3       1 <0>         0.0252
     18 C15         0.5616   -3.0620    1.1431 C.2       1 <0>         0.7367
     19 O3          1.5864   -3.7163    1.1257 O.2       1 <0>        -0.5635
     20 N2          0.0077   -2.7096    2.3184 N.am      1 <0>        -0.6184
     21 C16         0.7053   -2.8881    3.6110 C.3       1 <0>         0.1633
     22 C17         0.8123   -1.5422    4.3111 C.3       1 <0>        -0.1149
     23 C18        -0.5324   -0.8186    4.3779 C.3       1 <0>        -0.1275
     24 C19        -1.1233   -0.6807    2.9701 C.3       1 <0>        -0.1364
     25 C20        -1.3391   -2.1096    2.4282 C.3       1 <0>         0.0872
     26 C21        -2.0848   -2.8662    3.4974 C.2       1 <0>         0.5153
     27 O4         -3.2933   -2.7602    3.5335 O.2       1 <0>        -0.5392
     28 N3         -1.4922   -3.6476    4.4202 N.am      1 <0>        -0.5958
     29 C22        -0.0568   -3.9246    4.4225 C.3       1 <0>         0.2027
     30 C23         0.4829   -4.0705    5.8158 C.ar      1 <0>        -0.1592
     31 C24        -0.3441   -4.6571    6.7677 C.ar      1 <0>         0.0003
     32 C25         0.0446   -4.7559    8.0837 C.ar      1 <0>        -0.1793
     33 C26         1.3076   -4.3254    8.4648 C.ar      1 <0>         0.1767
     34 C27         2.1729   -3.8257    7.5081 C.ar      1 <0>        -0.3048
     35 C28         1.7703   -3.7245    6.1794 C.ar      1 <0>         0.1900
     36 O5          2.6969   -3.3273    5.2667 O.3       1 <0>        -0.3062
     37 C29         3.9951   -2.9947    5.7629 C.3       1 <0>         0.0241
     38 O6          1.6926   -4.3981    9.7653 O.3       1 <0>        -0.3108
     39 C30         3.0077   -3.9356   10.0795 C.3       1 <0>         0.0257
     40 C31        -1.6598   -5.2352    6.3144 C.3       1 <0>        -0.0928
     41 C32        -2.3852   -4.2347    5.4266 C.3       1 <0>         0.1185
     42 H1          1.6189    1.6175    0.9484 H         1 <0>         0.1027
     43 H2          0.2176    1.9746   -0.0894 H         1 <0>         0.0595
     44 H3         -0.0162    1.6748    1.6494 H         1 <0>         0.0583
     45 H4         -1.7415    1.5045    0.4666 H         1 <0>         0.1370
     46 H5         -4.0266    0.7060    0.0226 H         1 <0>         0.1335
     47 H6         -4.4368   -1.6766   -0.4315 H         1 <0>         0.1346
     48 H7         -2.5636   -3.2724   -0.4455 H         1 <0>         0.1430
     49 H8          1.8798   -1.6472   -1.5311 H         1 <0>         0.1327
     50 H9          2.6925   -2.5615   -3.6662 H         1 <0>         0.1294
     51 H10         1.7223   -4.6325   -4.5725 H         1 <0>         0.1288
     52 H11        -0.0664   -5.7985   -3.3490 H         1 <0>         0.1328
     53 H12        -0.7890   -6.9559   -1.7535 H         1 <0>         0.0571
     54 H13        -2.3733   -6.6453   -1.0039 H         1 <0>         0.1005
     55 H14        -2.0161   -6.0074   -2.6268 H         1 <0>         0.0575
     56 H15         1.7074   -3.2670    3.3872 H         1 <0>         0.1292
     57 H16         1.1774   -1.6759    5.3311 H         1 <0>         0.0783
     58 H17         1.5249   -0.9110    3.7702 H         1 <0>         0.0696
     59 H18        -1.2169   -1.3717    5.0149 H         1 <0>         0.0668
     60 H19        -0.3803    0.1791    4.7977 H         1 <0>         0.0675
     61 H20        -2.0771   -0.1573    3.0170 H         1 <0>         0.0787
     62 H21        -0.4300   -0.1410    2.3252 H         1 <0>         0.0934
     63 H22        -1.8687   -2.1122    1.4795 H         1 <0>         0.1701
     64 H23         0.0804   -4.8923    3.9163 H         1 <0>         0.0770
     65 H24        -0.6341   -5.1648    8.8175 H         1 <0>         0.1368
     66 H25         3.1676   -3.5125    7.7880 H         1 <0>         0.1391
     67 H26         4.6354   -2.6952    4.9331 H         1 <0>         0.1047
     68 H27         3.9128   -2.1723    6.4735 H         1 <0>         0.0560
     69 H28         4.4274   -3.8629    6.2604 H         1 <0>         0.0573
     70 H29         3.0982   -2.8845    9.8056 H         1 <0>         0.0564
     71 H30         3.1871   -4.0492   11.1486 H         1 <0>         0.1038
     72 H31         3.7408   -4.5203    9.5239 H         1 <0>         0.0566
     73 H32        -1.4797   -6.1557    5.7598 H         1 <0>         0.0915
     74 H33        -2.2745   -5.4583    7.1897 H         1 <0>         0.0980
     75 H34        -2.7997   -3.4387    6.0462 H         1 <0>         0.0703
     76 H35        -3.2045   -4.7443    4.9177 H         1 <0>         0.0808
@<TRIPOS>BOND
     1    1    2 1
     2    1   42 1
     3    1   43 1
     4    1   44 1
     5    2    3 1
     6    3    8 ar
     7    3    4 ar
     8    4    5 ar
     9    4   45 1
    10    5    6 ar
    11    5   46 1
    12    6    7 ar
    13    6   47 1
    14    7    8 ar
    15    7   48 1
    16    8    9 1
    17    9   10 1
    18    9   18 am
    19   10   15 ar
    20   10   11 ar
    21   11   12 ar
    22   11   49 1
    23   12   13 ar
    24   12   50 1
    25   13   14 ar
    26   13   51 1
    27   14   15 ar
    28   14   52 1
    29   15   16 1
    30   16   17 1
    31   17   53 1
    32   17   54 1
    33   17   55 1
    34   18   19 2
    35   18   20 am
    36   20   25 1
    37   20   21 1
    38   21   29 1
    39   21   22 1
    40   21   56 1
    41   22   23 1
    42   22   57 1
    43   22   58 1
    44   23   24 1
    45   23   59 1
    46   23   60 1
    47   24   25 1
    48   24   61 1
    49   24   62 1
    50   25   26 1
    51   25   63 1
    52   26   27 2
    53   26   28 am
    54   28   41 1
    55   28   29 1
    56   29   30 1
    57   29   64 1
    58   30   35 ar
    59   30   31 ar
    60   31   32 ar
    61   31   40 1
    62   32   33 ar
    63   32   65 1
    64   33   34 ar
    65   33   38 1
    66   34   35 ar
    67   34   66 1
    68   35   36 1
    69   36   37 1
    70   37   67 1
    71   37   68 1
    72   37   69 1
    73   38   39 1
    74   39   70 1
    75   39   71 1
    76   39   72 1
    77   40   41 1
    78   40   73 1
    79   40   74 1
    80   41   75 1
    81   41   76 1
@<TRIPOS>MOLECULE
CHEMBL436478__3
   76    81     0     0     0
SMALL
USER_CHARGES

@<TRIPOS>ATOM
      1 C1          0.9404    1.3573    1.0846 C.3       1 <0>         0.0221
      2 O1          0.6715    0.0027    0.7176 O.3       1 <0>        -0.3028
      3 C2         -0.6096   -0.3026    0.3793 C.ar      1 <0>         0.1286
      4 C3         -1.5851    0.6810    0.3947 C.ar      1 <0>        -0.1987
      5 C4         -2.8874    0.3690    0.0511 C.ar      1 <0>        -0.0729
      6 C5         -3.2205   -0.9239   -0.3087 C.ar      1 <0>        -0.1381
      7 C6         -2.2532   -1.9108   -0.3271 C.ar      1 <0>        -0.0904
      8 C7         -0.9433   -1.6039    0.0110 C.ar      1 <0>         0.1028
      9 N1          0.0410   -2.6023   -0.0120 N.am      1 <0>        -0.5219
     10 C8          0.4836   -3.1223   -1.2366 C.ar      1 <0>         0.1245
     11 C9          1.5603   -2.5412   -1.8905 C.ar      1 <0>        -0.0593
     12 C10         1.9947   -3.0555   -3.0974 C.ar      1 <0>        -0.1511
     13 C11         1.3588   -4.1490   -3.6559 C.ar      1 <0>        -0.0719
     14 C12         0.2849   -4.7331   -3.0103 C.ar      1 <0>        -0.2048
     15 C13        -0.1529   -4.2273   -1.7970 C.ar      1 <0>         0.1366
     16 O2         -1.2051   -4.8045   -1.1578 O.3       1 <0>        -0.3099
     17 C14        -1.8088   -5.9341   -1.7915 C.3       1 <0>         0.0254
     18 C15         0.5616   -3.0620    1.1431 C.2       1 <0>         0.7374
     19 O3          1.5315   -3.7951    1.1235 O.2       1 <0>        -0.5604
     20 N2          0.0071   -2.7092    2.3197 N.am      1 <0>        -0.6103
     21 C16         0.7038   -2.8871    3.6062 C.3       1 <0>         0.1402
     22 C17         0.8528   -1.5052    4.2571 C.3       1 <0>        -0.1256
     23 C18        -0.5341   -0.8820    4.4310 C.3       1 <0>        -0.1277
     24 C19        -1.2104   -0.7351    3.0666 C.3       1 <0>        -0.1326
     25 C20        -1.3423   -2.1097    2.4125 C.3       1 <0>         0.0830
     26 C21        -2.1454   -3.0083    3.3219 C.2       1 <0>         0.5239
     27 O4         -3.3560   -3.0048    3.2477 O.2       1 <0>        -0.5385
     28 N3         -1.5409   -3.8105    4.2100 N.am      1 <0>        -0.5950
     29 C22        -0.1133   -3.7872    4.5154 C.3       1 <0>         0.1988
     30 C23         0.4454   -5.1838    4.5440 C.ar      1 <0>        -0.1610
     31 C24        -0.3741   -6.2924    4.5651 C.ar      1 <0>         0.0090
     32 C25         0.1902   -7.5602    4.6083 C.ar      1 <0>        -0.1895
     33 C26         1.5658   -7.7210    4.6208 C.ar      1 <0>         0.1720
     34 C27         2.3898   -6.6067    4.5901 C.ar      1 <0>        -0.2924
     35 C28         1.8287   -5.3418    4.5523 C.ar      1 <0>         0.1836
     36 O5          2.6333   -4.2470    4.5235 O.3       1 <0>        -0.3022
     37 C29         4.0435   -4.4778    4.5339 C.3       1 <0>         0.0210
     38 O6          2.1060   -8.9672    4.6635 O.3       1 <0>        -0.3129
     39 C30         3.5322   -9.0561    4.6740 C.3       1 <0>         0.0262
     40 C31        -1.8764   -6.1948    4.5272 C.3       1 <0>        -0.0965
     41 C32        -2.3612   -4.7996    4.9412 C.3       1 <0>         0.1035
     42 H1          1.9969    1.4643    1.3303 H         1 <0>         0.1024
     43 H2          0.6926    2.0154    0.2517 H         1 <0>         0.0587
     44 H3          0.3367    1.6255    1.9516 H         1 <0>         0.0577
     45 H4         -1.3283    1.6917    0.6756 H         1 <0>         0.1368
     46 H5         -3.6466    1.1370    0.0640 H         1 <0>         0.1331
     47 H6         -4.2393   -1.1632   -0.5758 H         1 <0>         0.1342
     48 H7         -2.5162   -2.9198   -0.6085 H         1 <0>         0.1424
     49 H8          2.0586   -1.6869   -1.4567 H         1 <0>         0.1321
     50 H9          2.8328   -2.6021   -3.6057 H         1 <0>         0.1292
     51 H10         1.7017   -4.5476   -4.5993 H         1 <0>         0.1287
     52 H11        -0.2100   -5.5866   -3.4496 H         1 <0>         0.1325
     53 H12        -1.0675   -6.7246   -1.9079 H         1 <0>         0.0566
     54 H13        -2.6337   -6.2970   -1.1782 H         1 <0>         0.1005
     55 H14        -2.1858   -5.6424   -2.7717 H         1 <0>         0.0576
     56 H15         1.6840   -3.3318    3.4343 H         1 <0>         0.1532
     57 H16         1.3298   -1.6107    5.2315 H         1 <0>         0.0810
     58 H17         1.4624   -0.8655    3.6189 H         1 <0>         0.0754
     59 H18        -1.1419   -1.5229    5.0697 H         1 <0>         0.0650
     60 H19        -0.4348    0.0998    4.8939 H         1 <0>         0.0720
     61 H20        -2.1999   -0.2967    3.1967 H         1 <0>         0.0799
     62 H21        -0.6071   -0.0882    2.4297 H         1 <0>         0.0867
     63 H22        -1.7998   -2.0261    1.4267 H         1 <0>         0.1659
     64 H23        -0.0103   -3.3951    5.5272 H         1 <0>         0.0817
     65 H24        -0.4499   -8.4298    4.6329 H         1 <0>         0.1323
     66 H25         3.4633   -6.7247    4.5960 H         1 <0>         0.1372
     67 H26         4.5682   -3.5227    4.5083 H         1 <0>         0.1029
     68 H27         4.3165   -5.0182    5.4403 H         1 <0>         0.0563
     69 H28         4.3214   -5.0686    3.6610 H         1 <0>         0.0583
     70 H29         3.9221   -8.5377    5.5500 H         1 <0>         0.0558
     71 H30         3.8307  -10.1038    4.7091 H         1 <0>         0.1026
     72 H31         3.9316   -8.5945    3.7709 H         1 <0>         0.0560
     73 H32        -2.2224   -6.3985    3.5138 H         1 <0>         0.0847
     74 H33        -2.2999   -6.9365    5.2043 H         1 <0>         0.0938
     75 H34        -2.2229   -4.6733    6.0150 H         1 <0>         0.0769
     76 H35        -3.4127   -4.6696    4.6852 H         1 <0>         0.1075
@<TRIPOS>BOND
     1    1    2 1
     2    1   42 1
     3    1   43 1
     4    1   44 1
     5    2    3 1
     6    3    8 ar
     7    3    4 ar
     8    4    5 ar
     9    4   45 1
    10    5    6 ar
    11    5   46 1
    12    6    7 ar
    13    6   47 1
    14    7    8 ar
    15    7   48 1
    16    8    9 1
    17    9   10 1
    18    9   18 am
    19   10   15 ar
    20   10   11 ar
    21   11   12 ar
    22   11   49 1
    23   12   13 ar
    24   12   50 1
    25   13   14 ar
    26   13   51 1
    27   14   15 ar
    28   14   52 1
    29   15   16 1
    30   16   17 1
    31   17   53 1
    32   17   54 1
    33   17   55 1
    34   18   19 2
    35   18   20 am
    36   20   25 1
    37   20   21 1
    38   21   29 1
    39   21   22 1
    40   21   56 1
    41   22   23 1
    42   22   57 1
    43   22   58 1
    44   23   24 1
    45   23   59 1
    46   23   60 1
    47   24   25 1
    48   24   61 1
    49   24   62 1
    50   25   26 1
    51   25   63 1
    52   26   27 2
    53   26   28 am
    54   28   41 1
    55   28   29 1
    56   29   30 1
    57   29   64 1
    58   30   35 ar
    59   30   31 ar
    60   31   32 ar
    61   31   40 1
    62   32   33 ar
    63   32   65 1
    64   33   34 ar
    65   33   38 1
    66   34   35 ar
    67   34   66 1
    68   35   36 1
    69   36   37 1
    70   37   67 1
    71   37   68 1
    72   37   69 1
    73   38   39 1
    74   39   70 1
    75   39   71 1
    76   39   72 1
    77   40   41 1
    78   40   73 1
    79   40   74 1
    80   41   75 1
    81   41   76 1
@<TRIPOS>MOLECULE
CHEMBL119571
   59    60     0     0     0
SMALL
USER_CHARGES

@<TRIPOS>ATOM
      1 C1         -0.0187    1.5258    0.0104 C.3       1 <0>        -0.1555
      2 C2          0.0021   -0.0041    0.0020 C.3       1 <0>        -0.1076
      3 C3         -1.4333   -0.5336    0.0129 C.3       1 <0>        -0.0876
      4 C4         -2.1494   -0.0402    1.2717 C.3       1 <0>        -0.1454
      5 C5         -2.1733   -0.0268   -1.2266 C.3       1 <0>        -0.1460
      6 C6         -1.4129   -2.0405    0.0046 C.2       1 <0>         0.3674
      7 O1         -0.3588   -2.6301   -0.0086 O.2       1 <0>        -0.4140
      8 C7         -2.6937   -2.8034    0.0127 C.2       1 <0>         0.4973
      9 O2         -3.7529   -2.2110    0.0260 O.2       1 <0>        -0.4917
     10 N1         -2.6754   -4.1510    0.0053 N.am      1 <0>        -0.5854
     11 C8         -1.4659   -4.9939   -0.0043 C.3       1 <0>         0.0940
     12 C9         -1.9192   -6.3449    0.6032 C.3       1 <0>        -0.1367
     13 C10        -3.3521   -6.4817    0.0242 C.3       1 <0>        -0.1230
     14 C11        -3.8584   -5.0241    0.0119 C.3       1 <0>         0.1101
     15 H1         -4.4540   -4.8481   -0.8838 H         1 <0>         0.1163
     16 C12        -4.6863   -4.7560    1.2422 C.2       1 <0>         0.2969
     17 O3         -4.3294   -3.9170    2.0427 O.2       1 <0>        -0.4364
     18 S1         -6.0867   -5.6086    1.5023 S.3       1 <0>        -0.0986
     19 C13        -6.7162   -4.9506    3.0711 C.3       1 <0>        -0.0980
     20 C14        -8.0225   -5.6596    3.4340 C.3       1 <0>        -0.0984
     21 C15        -8.5535   -5.1046    4.7572 C.3       1 <0>        -0.0698
     22 C16        -9.8402   -5.8030    5.1147 C.ar      1 <0>        -0.1216
     23 C17       -11.0477   -5.2922    4.6757 C.ar      1 <0>        -0.0749
     24 C18       -12.2286   -5.9303    5.0023 C.ar      1 <0>        -0.1494
     25 C19       -12.2022   -7.0848    5.7712 C.ar      1 <0>         0.1247
     26 C20       -10.9893   -7.5955    6.2101 C.ar      1 <0>        -0.2062
     27 C21        -9.8108   -6.9566    5.8763 C.ar      1 <0>        -0.0748
     28 O4        -13.3626   -7.7141    6.0943 O.3       1 <0>        -0.3182
     29 C22       -13.2594   -8.8974    6.8887 C.3       1 <0>         0.0267
     30 H2          1.0039    1.9031    0.0027 H         1 <0>         0.0583
     31 H3         -0.5459    1.8868   -0.8726 H         1 <0>         0.0601
     32 H4         -0.5289    1.8773    0.9072 H         1 <0>         0.0599
     33 H5          0.5123   -0.3556   -0.8948 H         1 <0>         0.0688
     34 H6          0.5293   -0.3651    0.8851 H         1 <0>         0.0683
     35 H7         -2.1642    1.0497    1.2777 H         1 <0>         0.0748
     36 H8         -3.1720   -0.4175    1.2794 H         1 <0>         0.0784
     37 H9         -1.6223   -0.4013    2.1547 H         1 <0>         0.0553
     38 H10        -1.6631   -0.3783   -2.1234 H         1 <0>         0.0561
     39 H11        -3.1959   -0.4041   -1.2189 H         1 <0>         0.0776
     40 H12        -2.1881    1.0631   -1.2207 H         1 <0>         0.0757
     41 H13        -1.1113   -5.1369   -1.0251 H         1 <0>         0.0801
     42 H14        -0.6855   -4.5445    0.6098 H         1 <0>         0.0983
     43 H15        -1.2807   -7.1601    0.2629 H         1 <0>         0.0965
     44 H16        -1.9407   -6.2960    1.6919 H         1 <0>         0.0777
     45 H17        -3.3225   -6.8921   -0.9852 H         1 <0>         0.0972
     46 H18        -3.9734   -7.0979    0.6740 H         1 <0>         0.0973
     47 H19        -5.9805   -5.1196    3.8574 H         1 <0>         0.0950
     48 H20        -6.8996   -3.8810    2.9690 H         1 <0>         0.0966
     49 H21        -8.7583   -5.4906    2.6477 H         1 <0>         0.0785
     50 H22        -7.8392   -6.7292    3.5361 H         1 <0>         0.0773
     51 H23        -7.8178   -5.2737    5.5435 H         1 <0>         0.0750
     52 H24        -8.7369   -4.0350    4.6551 H         1 <0>         0.0764
     53 H25       -11.0678   -4.3935    4.0771 H         1 <0>         0.1298
     54 H26       -13.1716   -5.5305    4.6598 H         1 <0>         0.1312
     55 H27       -10.9661   -8.4940    6.8088 H         1 <0>         0.1281
     56 H28        -8.8660   -7.3562    6.2141 H         1 <0>         0.1246
     57 H29       -14.2558   -9.2988    7.0738 H         1 <0>         0.1012
     58 H30       -12.6615   -9.6393    6.3594 H         1 <0>         0.0559
     59 H31       -12.7824   -8.6569    7.8387 H         1 <0>         0.0558
@<TRIPOS>BOND
     1    1    2 1
     2    1   30 1
     3    1   31 1
     4    1   32 1
     5    2    3 1
     6    2   33 1
     7    2   34 1
     8    3    4 1
     9    3    5 1
    10    3    6 1
    11    4   35 1
    12    4   36 1
    13    4   37 1
    14    5   38 1
    15    5   39 1
    16    5   40 1
    17    6    7 2
    18    6    8 1
    19    8    9 2
    20    8   10 am
    21   10   14 1
    22   10   11 1
    23   11   12 1
    24   11   41 1
    25   11   42 1
    26   12   13 1
    27   12   43 1
    28   12   44 1
    29   13   14 1
    30   13   45 1
    31   13   46 1
    32   14   15 1
    33   14   16 1
    34   16   17 2
    35   16   18 1
    36   18   19 1
    37   19   20 1
    38   19   47 1
    39   19   48 1
    40   20   21 1
    41   20   49 1
    42   20   50 1
    43   21   22 1
    44   21   51 1
    45   21   52 1
    46   22   27 ar
    47   22   23 ar
    48   23   24 ar
    49   23   53 1
    50   24   25 ar
    51   24   54 1
    52   25   26 ar
    53   25   28 1
    54   26   27 ar
    55   26   55 1
    56   27   56 1
    57   28   29 1
    58   29   57 1
    59   29   58 1
    60   29   59 1
@<TRIPOS>MOLECULE
CHEMBL120518
   57    58     0     0     0
SMALL
USER_CHARGES

@<TRIPOS>ATOM
      1 C1         -0.0187    1.5258    0.0104 C.3       1 <0>        -0.1555
      2 C2          0.0021   -0.0041    0.0020 C.3       1 <0>        -0.1078
      3 C3          0.7182   -0.4975   -1.2568 C.3       1 <0>        -0.0878
      4 C4         -0.0218    0.0093   -2.4963 C.3       1 <0>        -0.1456
      5 C5          2.1536    0.0321   -1.2676 C.3       1 <0>        -0.1458
      6 C6          0.7386   -2.0043   -1.2651 C.2       1 <0>         0.3666
      7 O1          0.2326   -2.6202   -0.3576 O.2       1 <0>        -0.4139
      8 C7          1.3836   -2.7349   -2.3934 C.2       1 <0>         0.4963
      9 O2          1.8921   -2.1161   -3.3052 O.2       1 <0>        -0.4991
     10 N1          1.4018   -4.0825   -2.4008 N.am      1 <0>        -0.5855
     11 C8          0.8189   -4.9554   -1.3656 C.3       1 <0>         0.0945
     12 C9          0.5402   -6.2967   -2.0888 C.3       1 <0>        -0.1372
     13 C10         1.7600   -6.3955   -3.0427 C.3       1 <0>        -0.1194
     14 C11         2.0009   -4.9256   -3.4458 C.3       1 <0>         0.0821
     15 H1          3.0715   -4.7316   -3.5101 H         1 <0>         0.1082
     16 C12         1.3449   -4.6411   -4.7724 C.2       1 <0>         0.3512
     17 O3          0.3015   -4.0345   -4.8123 O.2       1 <0>        -0.4320
     18 C13         1.9911   -5.1137   -6.0491 C.3       1 <0>        -0.1667
     19 C14         1.1276   -4.6981   -7.2419 C.3       1 <0>        -0.1105
     20 C15         1.7837   -5.1779   -8.5382 C.3       1 <0>        -0.1120
     21 C16         0.9202   -4.7623   -9.7309 C.3       1 <0>        -0.0823
     22 C17         1.5664   -5.2349  -11.0077 C.ar      1 <0>        -0.0815
     23 C18         2.4697   -4.4224  -11.6671 C.ar      1 <0>        -0.1186
     24 C19         3.0624   -4.8559  -12.8383 C.ar      1 <0>        -0.1179
     25 C20         2.7521   -6.1020  -13.3498 C.ar      1 <0>        -0.1260
     26 C21         1.8495   -6.9149  -12.6900 C.ar      1 <0>        -0.1182
     27 C22         1.2601   -6.4832  -11.5165 C.ar      1 <0>        -0.1190
     28 H2          1.0039    1.9031    0.0027 H         1 <0>         0.0599
     29 H3         -0.5459    1.8868   -0.8726 H         1 <0>         0.0601
     30 H4         -0.5289    1.8773    0.9072 H         1 <0>         0.0581
     31 H5          0.5293   -0.3651    0.8851 H         1 <0>         0.0685
     32 H6         -1.0205   -0.3814    0.0098 H         1 <0>         0.0685
     33 H7         -0.0366    1.0992   -2.4903 H         1 <0>         0.0747
     34 H8          0.4884   -0.3422   -3.3931 H         1 <0>         0.0783
     35 H9         -1.0444   -0.3679   -2.4886 H         1 <0>         0.0559
     36 H10         2.6808   -0.3290   -0.3846 H         1 <0>         0.0558
     37 H11         2.6638   -0.3194   -2.1644 H         1 <0>         0.0777
     38 H12         2.1388    1.1220   -1.2617 H         1 <0>         0.0755
     39 H13         1.5279   -5.1037   -0.5511 H         1 <0>         0.0780
     40 H14        -0.1100   -4.5279   -0.9880 H         1 <0>         0.0977
     41 H15         0.5286   -7.1265   -1.3821 H         1 <0>         0.0941
     42 H16        -0.3926   -6.2511   -2.6508 H         1 <0>         0.0793
     43 H17         2.6258   -6.8030   -2.5206 H         1 <0>         0.0936
     44 H18         1.5172   -6.9982   -3.9179 H         1 <0>         0.0898
     45 H19         2.9803   -4.6658   -6.1431 H         1 <0>         0.1006
     46 H20         2.0843   -6.1996   -6.0289 H         1 <0>         0.0992
     47 H21         0.1384   -5.1460   -7.1479 H         1 <0>         0.0680
     48 H22         1.0344   -3.6123   -7.2621 H         1 <0>         0.0697
     49 H23         2.7729   -4.7300   -8.6322 H         1 <0>         0.0652
     50 H24         1.8769   -6.2637   -8.5179 H         1 <0>         0.0647
     51 H25        -0.0690   -5.2102   -9.6369 H         1 <0>         0.0727
     52 H26         0.8270   -3.6765   -9.7512 H         1 <0>         0.0731
     53 H27         2.7121   -3.4488  -11.2674 H         1 <0>         0.1208
     54 H28         3.7676   -4.2208  -13.3538 H         1 <0>         0.1214
     55 H29         3.2147   -6.4404  -14.2652 H         1 <0>         0.1208
     56 H30         1.6069   -7.8884  -13.0898 H         1 <0>         0.1213
     57 H31         0.5577   -7.1197  -10.9990 H         1 <0>         0.1204
@<TRIPOS>BOND
     1    1    2 1
     2    1   28 1
     3    1   29 1
     4    1   30 1
     5    2    3 1
     6    2   31 1
     7    2   32 1
     8    3    4 1
     9    3    5 1
    10    3    6 1
    11    4   33 1
    12    4   34 1
    13    4   35 1
    14    5   36 1
    15    5   37 1
    16    5   38 1
    17    6    7 2
    18    6    8 1
    19    8    9 2
    20    8   10 am
    21   10   14 1
    22   10   11 1
    23   11   12 1
    24   11   39 1
    25   11   40 1
    26   12   13 1
    27   12   41 1
    28   12   42 1
    29   13   14 1
    30   13   43 1
    31   13   44 1
    32   14   15 1
    33   14   16 1
    34   16   17 2
    35   16   18 1
    36   18   19 1
    37   18   45 1
    38   18   46 1
    39   19   20 1
    40   19   47 1
    41   19   48 1
    42   20   21 1
    43   20   49 1
    44   20   50 1
    45   21   22 1
    46   21   51 1
    47   21   52 1
    48   22   27 ar
    49   22   23 ar
    50   23   24 ar
    51   23   53 1
    52   24   25 ar
    53   24   54 1
    54   25   26 ar
    55   25   55 1
    56   26   27 ar
    57   26   56 1
    58   27   57 1
@<TRIPOS>MOLECULE
CHEMBL120630
   58    60     0     0     0
SMALL
USER_CHARGES

@<TRIPOS>ATOM
      1 C1         -0.0167    1.3781    0.0096 C.ar      1 <0>        -0.1260
      2 C2          1.1709    2.0855    0.0021 C.ar      1 <0>        -0.1182
      3 C3          2.3773    1.4107   -0.0130 C.ar      1 <0>        -0.1190
      4 C4          2.3960    0.0285   -0.0201 C.ar      1 <0>        -0.0814
      5 C5          1.2084   -0.6789   -0.0117 C.ar      1 <0>        -0.1186
      6 C6          0.0021   -0.0041    0.0020 C.ar      1 <0>        -0.1178
      7 C7          3.7112   -0.7071   -0.0376 C.3       1 <0>        -0.0825
      8 C8          4.1714   -0.9633    1.3989 C.3       1 <0>        -0.1119
      9 C9          5.5066   -1.7102    1.3812 C.3       1 <0>        -0.1111
     10 C10         5.9667   -1.9663    2.8177 C.3       1 <0>        -0.1663
     11 C11         7.2819   -2.7020    2.8002 C.2       1 <0>         0.3503
     12 O1          7.7978   -2.9915    1.7475 O.2       1 <0>        -0.4343
     13 C12         7.9531   -3.0763    4.0965 C.3       1 <0>         0.0820
     14 H1          7.2180   -3.4848    4.7900 H         1 <0>         0.1085
     15 C13         8.6262   -1.8339    4.7170 C.3       1 <0>        -0.1192
     16 C14         9.9434   -2.4080    5.3022 C.3       1 <0>        -0.1335
     17 C15        10.3048   -3.4889    4.2529 C.3       1 <0>         0.0933
     18 N1          9.0085   -4.0685    3.8448 N.am      1 <0>        -0.5853
     19 C16         8.8224   -5.2994    3.3284 C.2       1 <0>         0.4940
     20 O2          7.7060   -5.6692    3.0285 O.2       1 <0>        -0.5036
     21 C17         9.9879   -6.2067    3.1255 C.2       1 <0>         0.3636
     22 O3         11.0989   -5.8386    3.4240 O.2       1 <0>        -0.4129
     23 C18         9.7798   -7.5830    2.5481 C.3       1 <0>        -0.1171
     24 C19         9.4051   -8.5549    3.6687 C.3       1 <0>        -0.1049
     25 C20         9.1939   -9.9523    3.0825 C.3       1 <0>        -0.1165
     26 C21        10.4845  -10.4233    2.4092 C.3       1 <0>        -0.1230
     27 C22        10.8592   -9.4514    1.2885 C.3       1 <0>        -0.1188
     28 C23        11.0704   -8.0540    1.8748 C.3       1 <0>        -0.1085
     29 H2         -0.9591    1.9053    0.0259 H         1 <0>         0.1208
     30 H3          1.1563    3.1654    0.0076 H         1 <0>         0.1213
     31 H4          3.3051    1.9634   -0.0196 H         1 <0>         0.1204
     32 H5          1.2231   -1.7588   -0.0176 H         1 <0>         0.1208
     33 H6         -0.9258   -0.5567    0.0082 H         1 <0>         0.1214
     34 H7          3.5884   -1.6586   -0.5549 H         1 <0>         0.0731
     35 H8          4.4573   -0.1052   -0.5563 H         1 <0>         0.0727
     36 H9          4.2941   -0.0118    1.9163 H         1 <0>         0.0649
     37 H10         3.4252   -1.5652    1.9176 H         1 <0>         0.0653
     38 H11         5.3838   -2.6617    0.8639 H         1 <0>         0.0695
     39 H12         6.2527   -1.1082    0.8625 H         1 <0>         0.0681
     40 H13         6.0895   -1.0148    3.3350 H         1 <0>         0.1001
     41 H14         5.2206   -2.5682    3.3364 H         1 <0>         0.1008
     42 H15         8.8375   -1.0871    3.9516 H         1 <0>         0.0824
     43 H16         8.0045   -1.4126    5.5070 H         1 <0>         0.0976
     44 H17        10.7153   -1.6402    5.3539 H         1 <0>         0.0935
     45 H18         9.7735   -2.8555    6.2815 H         1 <0>         0.0829
     46 H19        10.8049   -3.0349    3.3975 H         1 <0>         0.0762
     47 H20        10.9375   -4.2554    4.7004 H         1 <0>         0.1000
     48 H21         8.9768   -7.5505    1.8117 H         1 <0>         0.1092
     49 H22        10.2082   -8.5875    4.4051 H         1 <0>         0.0677
     50 H23         8.4857   -8.2194    4.1484 H         1 <0>         0.0717
     51 H24         8.9270  -10.6447    3.8809 H         1 <0>         0.0686
     52 H25         8.3909   -9.9198    2.3461 H         1 <0>         0.0674
     53 H26        11.2875  -10.4558    3.1455 H         1 <0>         0.0635
     54 H27        10.3340  -11.4188    1.9915 H         1 <0>         0.0653
     55 H28        11.7786   -9.7870    0.8088 H         1 <0>         0.0680
     56 H29        10.0561   -9.4189    0.5522 H         1 <0>         0.0651
     57 H30        11.3373   -7.3616    1.0764 H         1 <0>         0.0660
     58 H31        11.8734   -8.0866    2.6111 H         1 <0>         0.0742
@<TRIPOS>BOND
     1    1    6 ar
     2    1    2 ar
     3    1   29 1
     4    2    3 ar
     5    2   30 1
     6    3    4 ar
     7    3   31 1
     8    4    5 ar
     9    4    7 1
    10    5    6 ar
    11    5   32 1
    12    6   33 1
    13    7    8 1
    14    7   34 1
    15    7   35 1
    16    8    9 1
    17    8   36 1
    18    8   37 1
    19    9   10 1
    20    9   38 1
    21    9   39 1
    22   10   11 1
    23   10   40 1
    24   10   41 1
    25   11   12 2
    26   11   13 1
    27   13   14 1
    28   13   18 1
    29   13   15 1
    30   15   16 1
    31   15   42 1
    32   15   43 1
    33   16   17 1
    34   16   44 1
    35   16   45 1
    36   17   18 1
    37   17   46 1
    38   17   47 1
    39   18   19 am
    40   19   20 2
    41   19   21 1
    42   21   22 2
    43   21   23 1
    44   23   28 1
    45   23   24 1
    46   23   48 1
    47   24   25 1
    48   24   49 1
    49   24   50 1
    50   25   26 1
    51   25   51 1
    52   25   52 1
    53   26   27 1
    54   26   53 1
    55   26   54 1
    56   27   28 1
    57   27   55 1
    58   27   56 1
    59   28   57 1
    60   28   58 1
@<TRIPOS>MOLECULE
CHEMBL201785
   54    58     0     0     0
SMALL
USER_CHARGES

@<TRIPOS>ATOM
      1 C1         -0.0173    1.4248    0.0099 C.3       1 <0>         0.0277
      2 O1          0.0021   -0.0041    0.0020 O.3       1 <0>        -0.3190
      3 C2          0.6258   -0.6184    1.0415 C.ar      1 <0>         0.1309
      4 C3          1.2028    0.1372    2.0522 C.ar      1 <0>        -0.2018
      5 C4          1.8378   -0.4960    3.0996 C.ar      1 <0>        -0.0685
      6 C5          1.9013   -1.8812    3.1524 C.ar      1 <0>        -0.1247
      7 C6          1.3198   -2.6365    2.1557 C.ar      1 <0>        -0.0168
      8 C7          0.6829   -2.0001    1.0988 C.ar      1 <0>        -0.1510
      9 C8          1.3224   -4.1421    2.1686 C.3       1 <0>        -0.0976
     10 C9          2.4134   -4.6849    3.0904 C.3       1 <0>         0.1069
     11 N1          2.3320   -3.9413    4.3657 N.am      1 <0>        -0.5881
     12 C10         2.6219   -2.5188    4.3093 C.3       1 <0>         0.1908
     13 C11         2.3501   -1.7725    5.6030 C.3       1 <0>         0.1489
     14 C12         3.6415   -1.6951    6.4285 C.3       1 <0>        -0.1299
     15 C13         4.0965   -3.1134    6.7803 C.3       1 <0>        -0.1234
     16 C14         3.0097   -3.8188    7.5938 C.3       1 <0>        -0.1223
     17 C15         1.7181   -3.8826    6.7707 C.3       1 <0>         0.1463
     18 C16         1.9957   -4.6107    5.4774 C.2       1 <0>         0.5297
     19 O2          1.9128   -5.8202    5.4438 O.2       1 <0>        -0.5466
     20 N2          1.3456   -2.4998    6.3991 N.pl3     1 <0>        -0.9812
     21 S1         -0.0960   -1.8184    6.8460 S.o2      1 <0>         2.7173
     22 O3         -0.5347   -2.5179    8.0025 O.2       1 <0>        -1.0357
     23 O4          0.0995   -0.4109    6.8355 O.2       1 <0>        -1.0348
     24 N3         -1.1885   -2.1534    5.6474 N.2       1 <0>        -1.0816
     25 C17        -2.5057   -1.6975    5.7548 C.ar      1 <0>         0.3285
     26 C18        -2.8972   -0.9587    6.8634 C.ar      1 <0>        -0.2896
     27 C19        -4.2009   -0.5077    6.9682 C.ar      1 <0>         0.1535
     28 C20        -5.1162   -0.7930    5.9670 C.ar      1 <0>        -0.0864
     29 C21        -4.7268   -1.5308    4.8600 C.ar      1 <0>         0.1375
     30 C22        -3.4222   -1.9781    4.7500 C.ar      1 <0>        -0.1969
     31 F1         -5.6202   -1.8083    3.8853 F         1 <0>        -0.1352
     32 F2         -6.3890   -0.3520    6.0705 F         1 <0>        -0.1427
     33 F3         -4.5822    0.2106    8.0469 F         1 <0>        -0.1354
     34 H1          1.0053    1.8021    0.0021 H         1 <0>         0.0531
     35 H2         -0.5445    1.7859   -0.8732 H         1 <0>         0.0971
     36 H3         -0.5275    1.7763    0.9067 H         1 <0>         0.0574
     37 H4          1.1552    1.2157    2.0184 H         1 <0>         0.1279
     38 H5          2.2897    0.0910    3.8854 H         1 <0>         0.1274
     39 H6          0.2319   -2.5879    0.3130 H         1 <0>         0.1278
     40 H7          0.3522   -4.4981    2.5151 H         1 <0>         0.0892
     41 H8          1.4954   -4.5078    1.1564 H         1 <0>         0.0854
     42 H9          2.2502   -5.7474    3.2708 H         1 <0>         0.1032
     43 H10         3.3919   -4.5323    2.6351 H         1 <0>         0.0729
     44 H11         3.6891   -2.4187    4.1117 H         1 <0>         0.0812
     45 H12         1.9848   -0.7703    5.3785 H         1 <0>         0.1185
     46 H13         4.4170   -1.1975    5.8462 H         1 <0>         0.0775
     47 H14         3.4555   -1.1343    7.3444 H         1 <0>         0.0777
     48 H15         4.2829   -3.6722    5.8631 H         1 <0>         0.0655
     49 H16         5.0140   -3.0646    7.3667 H         1 <0>         0.0706
     50 H17         3.3362   -4.8300    7.8368 H         1 <0>         0.0809
     51 H18         2.8272   -3.2645    8.5143 H         1 <0>         0.0814
     52 H19         0.9237   -4.3748    7.3316 H         1 <0>         0.1342
     53 H20        -2.1844   -0.7366    7.6438 H         1 <0>         0.1213
     54 H21        -3.1179   -2.5488    3.8851 H         1 <0>         0.1409
@<TRIPOS>BOND
     1    1    2 1
     2    1   34 1
     3    1   35 1
     4    1   36 1
     5    2    3 1
     6    3    8 ar
     7    3    4 ar
     8    4    5 ar
     9    4   37 1
    10    5    6 ar
    11    5   38 1
    12    6   12 1
    13    6    7 ar
    14    7    8 ar
    15    7    9 1
    16    8   39 1
    17    9   10 1
    18    9   40 1
    19    9   41 1
    20   10   11 1
    21   10   42 1
    22   10   43 1
    23   11   18 am
    24   11   12 1
    25   12   13 1
    26   12   44 1
    27   13   20 1
    28   13   14 1
    29   13   45 1
    30   14   15 1
    31   14   46 1
    32   14   47 1
    33   15   16 1
    34   15   48 1
    35   15   49 1
    36   16   17 1
    37   16   50 1
    38   16   51 1
    39   17   18 1
    40   17   20 1
    41   17   52 1
    42   18   19 2
    43   20   21 1
    44   21   22 2
    45   21   23 2
    46   21   24 1
    47   24   25 1
    48   25   30 ar
    49   25   26 ar
    50   26   27 ar
    51   26   53 1
    52   27   28 ar
    53   27   33 1
    54   28   29 ar
    55   28   32 1
    56   29   30 ar
    57   29   31 1
    58   30   54 1
@<TRIPOS>MOLECULE
CHEMBL201785__1
   55    59     0     0     0
SMALL
USER_CHARGES

@<TRIPOS>ATOM
      1 C1         -2.8469   -2.9635    2.6227 C.3       1 <0>         0.0256
      2 O1         -2.9774   -4.0735    1.7323 O.3       1 <0>        -0.3154
      3 C2         -4.0002   -4.0306    0.8385 C.ar      1 <0>         0.1382
      4 C3         -4.8580   -2.9403    0.8138 C.ar      1 <0>        -0.2022
      5 C4         -5.8958   -2.9092   -0.0937 C.ar      1 <0>        -0.0752
      6 C5         -6.0865   -3.9569   -0.9833 C.ar      1 <0>        -0.1427
      7 C6         -5.2299   -5.0377   -0.9697 C.ar      1 <0>        -0.0232
      8 C7         -4.1865   -5.0717   -0.0544 C.ar      1 <0>        -0.1506
      9 C8         -5.3592   -6.1911   -1.9288 C.3       1 <0>        -0.1085
     10 C9         -6.7606   -6.2519   -2.5344 C.3       1 <0>         0.1014
     11 N1         -7.1157   -4.8868   -2.9778 N.am      1 <0>        -0.5986
     12 C10        -7.2455   -3.8785   -1.9400 C.3       1 <0>         0.1815
     13 C11        -7.4322   -2.4647   -2.4602 C.3       1 <0>         0.1442
     14 C12        -8.9308   -2.1434   -2.5379 C.3       1 <0>        -0.1285
     15 C13        -9.5993   -3.1075   -3.5207 C.3       1 <0>        -0.1278
     16 C14        -8.9695   -2.9533   -4.9064 C.3       1 <0>        -0.1217
     17 C15        -7.4705   -3.2627   -4.8218 C.3       1 <0>         0.1356
     18 C16        -7.2878   -4.6633   -4.2884 C.2       1 <0>         0.5137
     19 O2         -7.2965   -5.6008   -5.0577 O.2       1 <0>        -0.5163
     20 N2         -6.8732   -2.3533   -3.8193 N.pl3     1 <0>        -1.0009
     21 S1         -5.6640   -1.2868   -4.1971 S.o2      1 <0>         2.7800
     22 O3         -5.6892   -1.1279   -5.6090 O.2       1 <0>        -0.9505
     23 O4         -5.7969   -0.1892   -3.3045 O.2       1 <0>        -0.9522
     24 N3         -4.2278   -2.0247   -3.8295 N.pl3     1 <0>        -1.0684
     25 C17        -3.7739   -3.0962   -4.6043 C.ar      1 <0>         0.1874
     26 C18        -4.3561   -4.3493   -4.4664 C.ar      1 <0>        -0.1704
     27 C19        -3.9063   -5.4086   -5.2341 C.ar      1 <0>         0.1235
     28 C20        -2.8750   -5.2196   -6.1408 C.ar      1 <0>         0.0402
     29 C21        -2.2926   -3.9694   -6.2791 C.ar      1 <0>         0.1165
     30 C22        -2.7443   -2.9070   -5.5167 C.ar      1 <0>        -0.1256
     31 F1         -1.2872   -3.7869   -7.1629 F         1 <0>        -0.1096
     32 F2         -2.4367   -6.2549   -6.8899 F         1 <0>        -0.1091
     33 F3         -4.4723   -6.6280   -5.0999 F         1 <0>        -0.1028
     34 H1         -1.9935   -3.1244    3.2814 H         1 <0>         0.1026
     35 H2         -2.6939   -2.0512    2.0461 H         1 <0>         0.0575
     36 H3         -3.7539   -2.8681    3.2198 H         1 <0>         0.0577
     37 H4         -4.7140   -2.1205    1.5019 H         1 <0>         0.1340
     38 H5         -6.5659   -2.0625   -0.1121 H         1 <0>         0.1325
     39 H6         -3.5173   -5.9192   -0.0362 H         1 <0>         0.1327
     40 H7         -4.6289   -6.0736   -2.7294 H         1 <0>         0.0840
     41 H8         -5.1589   -7.1216   -1.3976 H         1 <0>         0.0967
     42 H9         -6.7659   -6.9308   -3.3871 H         1 <0>         0.1113
     43 H10        -7.4732   -6.5940   -1.7839 H         1 <0>         0.0836
     44 H11        -8.1429   -4.1208   -1.3708 H         1 <0>         0.0960
     45 H12        -6.9289   -1.7605   -1.7976 H         1 <0>         0.1226
     46 H13        -9.3800   -2.2589   -1.5515 H         1 <0>         0.0867
     47 H14        -9.0664   -1.1185   -2.8836 H         1 <0>         0.0843
     48 H15        -9.4635   -4.1315   -3.1728 H         1 <0>         0.0687
     49 H16       -10.6645   -2.8840   -3.5798 H         1 <0>         0.0798
     50 H17        -9.4450   -3.6459   -5.6009 H         1 <0>         0.0900
     51 H18        -9.1105   -1.9313   -5.2582 H         1 <0>         0.0878
     52 H19        -6.9953   -3.1524   -5.7965 H         1 <0>         0.1410
     53 H20        -3.7014   -1.7135   -3.0765 H         1 <0>         0.4311
     54 H21        -5.1595   -4.4969   -3.7598 H         1 <0>         0.1682
     55 H22        -2.2936   -1.9318   -5.6281 H         1 <0>         0.1637
@<TRIPOS>BOND
     1    1    2 1
     2    1   34 1
     3    1   35 1
     4    1   36 1
     5    2    3 1
     6    3    8 ar
     7    3    4 ar
     8    4    5 ar
     9    4   37 1
    10    5    6 ar
    11    5   38 1
    12    6   12 1
    13    6    7 ar
    14    7    8 ar
    15    7    9 1
    16    8   39 1
    17    9   10 1
    18    9   40 1
    19    9   41 1
    20   10   11 1
    21   10   42 1
    22   10   43 1
    23   11   18 am
    24   11   12 1
    25   12   13 1
    26   12   44 1
    27   13   20 1
    28   13   14 1
    29   13   45 1
    30   14   15 1
    31   14   46 1
    32   14   47 1
    33   15   16 1
    34   15   48 1
    35   15   49 1
    36   16   17 1
    37   16   50 1
    38   16   51 1
    39   17   18 1
    40   17   20 1
    41   17   52 1
    42   18   19 2
    43   20   21 1
    44   21   22 2
    45   21   23 2
    46   21   24 1
    47   24   25 1
    48   24   53 1
    49   25   30 ar
    50   25   26 ar
    51   26   27 ar
    52   26   54 1
    53   27   28 ar
    54   27   33 1
    55   28   29 ar
    56   28   32 1
    57   29   30 ar
    58   29   31 1
    59   30   55 1
@<TRIPOS>MOLECULE
CHEMBL201785__2
   54    58     0     0     0
SMALL
USER_CHARGES

@<TRIPOS>ATOM
      1 C1         -0.0173    1.4248    0.0099 C.3       1 <0>         0.0269
      2 O1          0.0021   -0.0041    0.0020 O.3       1 <0>        -0.3188
      3 C2          0.6258   -0.6184    1.0415 C.ar      1 <0>         0.1317
      4 C3          1.2017    0.1406    2.0502 C.ar      1 <0>        -0.2121
      5 C4          1.8386   -0.4818    3.1091 C.ar      1 <0>        -0.0685
      6 C5          1.8961   -1.8567    3.1554 C.ar      1 <0>        -0.1270
      7 C6          1.3195   -2.6179    2.1491 C.ar      1 <0>        -0.0357
      8 C7          0.6810   -2.0057    1.0955 C.ar      1 <0>        -0.1445
      9 C8          1.4174   -4.1165    2.2652 C.3       1 <0>        -0.0912
     10 C9          1.0627   -4.5440    3.6856 C.3       1 <0>         0.1198
     11 N1          1.7494   -3.7213    4.6941 N.am      1 <0>        -0.5952
     12 C10         2.5768   -2.5914    4.2816 C.3       1 <0>         0.1852
     13 C11         2.8681   -1.6276    5.4227 C.3       1 <0>         0.1544
     14 C12         1.6651   -0.7333    5.7083 C.3       1 <0>        -0.1643
     15 C13         0.5043   -1.5523    6.2711 C.3       1 <0>        -0.1186
     16 C14         0.9543   -2.2918    7.5357 C.3       1 <0>        -0.1251
     17 C15         2.0916   -3.2541    7.1373 C.3       1 <0>         0.1499
     18 C16         1.5888   -4.0786    5.9803 C.2       1 <0>         0.5219
     19 O2          1.0100   -5.1167    6.2216 O.2       1 <0>        -0.5450
     20 N2          3.1940   -2.4078    6.6303 N.pl3     1 <0>        -0.9846
     21 S1          4.6782   -2.3424    7.3618 S.o2      1 <0>         2.7182
     22 O3          4.8287   -3.5567    8.0844 O.2       1 <0>        -1.0332
     23 O4          5.6038   -1.9287    6.3662 O.2       1 <0>        -1.0350
     24 N3          4.6172   -1.1275    8.4855 N.2       1 <0>        -1.0881
     25 C17         5.7412   -0.8395    9.2654 C.ar      1 <0>         0.3263
     26 C18         6.9109   -1.5681    9.0943 C.ar      1 <0>        -0.2881
     27 C19         8.0226   -1.2818    9.8664 C.ar      1 <0>         0.1537
     28 C20         7.9692   -0.2682   10.8104 C.ar      1 <0>        -0.0844
     29 C21         6.8021    0.4596   10.9825 C.ar      1 <0>         0.1375
     30 C22         5.6907    0.1791   10.2077 C.ar      1 <0>        -0.1981
     31 F1          6.7516    1.4469   11.9033 F         1 <0>        -0.1349
     32 F2          9.0555    0.0104   11.5637 F         1 <0>        -0.1422
     33 F3          9.1606   -1.9907    9.7005 F         1 <0>        -0.1347
     34 H1          1.0053    1.8021    0.0021 H         1 <0>         0.0567
     35 H2         -0.5445    1.7859   -0.8732 H         1 <0>         0.0986
     36 H3         -0.5275    1.7763    0.9067 H         1 <0>         0.0562
     37 H4          1.1530    1.2187    2.0086 H         1 <0>         0.1310
     38 H5          2.2884    0.1074    3.8946 H         1 <0>         0.1528
     39 H6          0.2295   -2.5989    0.3141 H         1 <0>         0.1319
     40 H7          0.7252   -4.5809    1.5629 H         1 <0>         0.0933
     41 H8          2.4347   -4.4327    2.0344 H         1 <0>         0.0883
     42 H9         -0.0143   -4.4512    3.8256 H         1 <0>         0.0681
     43 H10         1.3484   -5.5868    3.8241 H         1 <0>         0.0789
     44 H11         3.5284   -2.9767    3.9152 H         1 <0>         0.0855
     45 H12         3.7195   -1.0009    5.1574 H         1 <0>         0.1141
     46 H13         1.9495    0.0307    6.4318 H         1 <0>         0.0823
     47 H14         1.3489   -0.2508    4.7834 H         1 <0>         0.1043
     48 H15        -0.3234   -0.8867    6.5159 H         1 <0>         0.0659
     49 H16         0.1769   -2.2765    5.5252 H         1 <0>         0.0632
     50 H17         1.3175   -1.5757    8.2728 H         1 <0>         0.0938
     51 H18         0.1195   -2.8576    7.9494 H         1 <0>         0.0752
     52 H19         2.4032   -3.8799    7.9736 H         1 <0>         0.1382
     53 H20         6.9527   -2.3581    8.3591 H         1 <0>         0.1222
     54 H21         4.7830    0.7494   10.3387 H         1 <0>         0.1429
@<TRIPOS>BOND
     1    1    2 1
     2    1   34 1
     3    1   35 1
     4    1   36 1
     5    2    3 1
     6    3    8 ar
     7    3    4 ar
     8    4    5 ar
     9    4   37 1
    10    5    6 ar
    11    5   38 1
    12    6   12 1
    13    6    7 ar
    14    7    8 ar
    15    7    9 1
    16    8   39 1
    17    9   10 1
    18    9   40 1
    19    9   41 1
    20   10   11 1
    21   10   42 1
    22   10   43 1
    23   11   18 am
    24   11   12 1
    25   12   13 1
    26   12   44 1
    27   13   20 1
    28   13   14 1
    29   13   45 1
    30   14   15 1
    31   14   46 1
    32   14   47 1
    33   15   16 1
    34   15   48 1
    35   15   49 1
    36   16   17 1
    37   16   50 1
    38   16   51 1
    39   17   18 1
    40   17   20 1
    41   17   52 1
    42   18   19 2
    43   20   21 1
    44   21   22 2
    45   21   23 2
    46   21   24 1
    47   24   25 1
    48   25   30 ar
    49   25   26 ar
    50   26   27 ar
    51   26   53 1
    52   27   28 ar
    53   27   33 1
    54   28   29 ar
    55   28   32 1
    56   29   30 ar
    57   29   31 1
    58   30   54 1
@<TRIPOS>MOLECULE
CHEMBL201785__3
   55    59     0     0     0
SMALL
USER_CHARGES

@<TRIPOS>ATOM
      1 C1         -0.0326    1.3773   -1.0564 C.3       1 <0>         0.0255
      2 O1         -0.0274   -0.0506   -1.1134 O.3       1 <0>        -0.3153
      3 C2         -1.2257   -0.6777   -0.9801 C.ar      1 <0>         0.1409
      4 C3         -2.3822    0.0683   -0.8038 C.ar      1 <0>        -0.2110
      5 C4         -3.6035   -0.5672   -0.6664 C.ar      1 <0>        -0.0726
      6 C5         -3.6633   -1.9422   -0.7066 C.ar      1 <0>        -0.1381
      7 C6         -2.5087   -2.6904   -0.8846 C.ar      1 <0>        -0.0315
      8 C7         -1.2917   -2.0648   -1.0261 C.ar      1 <0>        -0.1409
      9 C8         -2.6481   -4.1897   -0.9218 C.3       1 <0>        -0.0936
     10 C9         -3.8149   -4.5730   -1.8262 C.3       1 <0>         0.1197
     11 N1         -5.0148   -3.7691   -1.5445 N.am      1 <0>        -0.5933
     12 C10        -4.9632   -2.6910   -0.5614 C.3       1 <0>         0.1905
     13 C11        -6.1310   -1.7234   -0.6873 C.3       1 <0>         0.1463
     14 C12        -5.9266   -0.7631   -1.8554 C.3       1 <0>        -0.1697
     15 C13        -5.9872   -1.5109   -3.1867 C.3       1 <0>        -0.1232
     16 C14        -7.3242   -2.2500   -3.3079 C.3       1 <0>        -0.1256
     17 C15        -7.3989   -3.2768   -2.1596 C.3       1 <0>         0.1424
     18 C16        -6.1342   -4.0946   -2.2143 C.2       1 <0>         0.5186
     19 O2         -6.1258   -5.0970   -2.8970 O.2       1 <0>        -0.5302
     20 N2         -7.3669   -2.4978   -0.9024 N.pl3     1 <0>        -0.9995
     21 S1         -8.6210   -2.4962    0.1791 S.o2      1 <0>         2.7820
     22 O3         -9.3994   -3.6518   -0.1000 O.2       1 <0>        -0.9486
     23 O4         -8.0537   -2.2505    1.4585 O.2       1 <0>        -0.9528
     24 N3         -9.5721   -1.1879   -0.1761 N.pl3     1 <0>        -1.0612
     25 C17        -9.0441    0.1039   -0.0911 C.ar      1 <0>         0.1997
     26 C18        -8.2898    0.4749    1.0141 C.ar      1 <0>        -0.1813
     27 C19        -7.7675    1.7533    1.0967 C.ar      1 <0>         0.1303
     28 C20        -7.9969    2.6636    0.0768 C.ar      1 <0>         0.0247
     29 C21        -8.7500    2.2947   -1.0268 C.ar      1 <0>         0.1241
     30 C22        -9.2687    1.0151   -1.1146 C.ar      1 <0>        -0.1489
     31 F1         -8.9730    3.1832   -2.0197 F         1 <0>        -0.1104
     32 F2         -7.4862    3.9117    0.1587 F         1 <0>        -0.1116
     33 F3         -7.0340    2.1148    2.1721 F         1 <0>        -0.1075
     34 H1          0.9850    1.7493   -1.1759 H         1 <0>         0.1026
     35 H2         -0.6596    1.7706   -1.8565 H         1 <0>         0.0572
     36 H3         -0.4270    1.7010   -0.0932 H         1 <0>         0.0581
     37 H4         -2.3290    1.1466   -0.7735 H         1 <0>         0.1328
     38 H5         -4.5046    0.0118   -0.5280 H         1 <0>         0.1454
     39 H6         -0.3936   -2.6478   -1.1679 H         1 <0>         0.1358
     40 H7         -1.7292   -4.6302   -1.3086 H         1 <0>         0.0978
     41 H8         -2.8325   -4.5622    0.0859 H         1 <0>         0.0905
     42 H9         -3.5226   -4.4222   -2.8654 H         1 <0>         0.0724
     43 H10        -4.0500   -5.6265   -1.6747 H         1 <0>         0.0836
     44 H11        -4.9968   -3.1314    0.4351 H         1 <0>         0.0913
     45 H12        -6.2224   -1.1463    0.2329 H         1 <0>         0.1140
     46 H13        -6.7067   -0.0021   -1.8353 H         1 <0>         0.0732
     47 H14        -4.9536   -0.2815   -1.7582 H         1 <0>         0.1182
     48 H15        -5.8912   -0.7992   -4.0066 H         1 <0>         0.0746
     49 H16        -5.1699   -2.2304   -3.2355 H         1 <0>         0.0728
     50 H17        -8.1475   -1.5407   -3.2232 H         1 <0>         0.0842
     51 H18        -7.3762   -2.7645   -4.2674 H         1 <0>         0.0884
     52 H19        -8.2880   -3.9028   -2.2343 H         1 <0>         0.1466
     53 H20       -10.4956   -1.3178   -0.4431 H         1 <0>         0.4351
     54 H21        -8.1113   -0.2340    1.8090 H         1 <0>         0.1849
     55 H22        -9.8515    0.7264   -1.9768 H         1 <0>         0.1626
@<TRIPOS>BOND
     1    1    2 1
     2    1   34 1
     3    1   35 1
     4    1   36 1
     5    2    3 1
     6    3    8 ar
     7    3    4 ar
     8    4    5 ar
     9    4   37 1
    10    5    6 ar
    11    5   38 1
    12    6   12 1
    13    6    7 ar
    14    7    8 ar
    15    7    9 1
    16    8   39 1
    17    9   10 1
    18    9   40 1
    19    9   41 1
    20   10   11 1
    21   10   42 1
    22   10   43 1
    23   11   18 am
    24   11   12 1
    25   12   13 1
    26   12   44 1
    27   13   20 1
    28   13   14 1
    29   13   45 1
    30   14   15 1
    31   14   46 1
    32   14   47 1
    33   15   16 1
    34   15   48 1
    35   15   49 1
    36   16   17 1
    37   16   50 1
    38   16   51 1
    39   17   18 1
    40   17   20 1
    41   17   52 1
    42   18   19 2
    43   20   21 1
    44   21   22 2
    45   21   23 2
    46   21   24 1
    47   24   25 1
    48   24   53 1
    49   25   30 ar
    50   25   26 ar
    51   26   27 ar
    52   26   54 1
    53   27   28 ar
    54   27   33 1
    55   28   29 ar
    56   28   32 1
    57   29   30 ar
    58   29   31 1
    59   30   55 1
@<TRIPOS>MOLECULE
CHEMBL201785__4
   54    58     0     0     0
SMALL
USER_CHARGES

@<TRIPOS>ATOM
      1 C1         -0.0173    1.4248    0.0099 C.3       1 <0>         0.0272
      2 O1          0.0021   -0.0041    0.0020 O.3       1 <0>        -0.3188
      3 C2          0.6258   -0.6184    1.0415 C.ar      1 <0>         0.1308
      4 C3          1.2018    0.1404    2.0503 C.ar      1 <0>        -0.2127
      5 C4          1.8369   -0.4819    3.1104 C.ar      1 <0>        -0.0718
      6 C5          1.8941   -1.8567    3.1571 C.ar      1 <0>        -0.1267
      7 C6          1.3204   -2.6178    2.1490 C.ar      1 <0>        -0.0342
      8 C7          0.6812   -2.0057    1.0957 C.ar      1 <0>        -0.1440
      9 C8          1.4245   -4.1163    2.2618 C.3       1 <0>        -0.0915
     10 C9          2.8526   -4.5029    2.6331 C.3       1 <0>         0.1213
     11 N1          3.3725   -3.6841    3.7399 N.am      1 <0>        -0.5909
     12 C10         2.5712   -2.5921    4.2851 C.3       1 <0>         0.1856
     13 C11         3.3931   -1.6172    5.1156 C.3       1 <0>         0.1529
     14 C12         4.1974   -0.6757    4.2239 C.3       1 <0>        -0.1645
     15 C13         5.2828   -1.4414    3.4686 C.3       1 <0>        -0.1211
     16 C14         6.1923   -2.1720    4.4623 C.3       1 <0>        -0.1240
     17 C15         5.3232   -3.1818    5.2390 C.3       1 <0>         0.1518
     18 C16         4.5867   -4.0096    4.2173 C.2       1 <0>         0.5246
     19 O2          5.1158   -5.0200    3.8050 O.2       1 <0>        -0.5466
     20 N2          4.3149   -2.3853    5.9722 N.pl3     1 <0>        -0.9845
     21 S1          4.2289   -2.3581    7.6257 S.o2      1 <0>         2.7188
     22 O3          5.5202   -2.7068    8.1054 O.2       1 <0>        -1.0325
     23 O4          3.5883   -1.1399    7.9791 O.2       1 <0>        -1.0343
     24 N3          3.2084   -3.5794    8.0830 N.2       1 <0>        -1.0911
     25 C17         2.9426   -3.7978    9.4381 C.ar      1 <0>         0.3269
     26 C18         3.5296   -2.9873   10.4008 C.ar      1 <0>        -0.2881
     27 C19         3.2654   -3.2041   11.7414 C.ar      1 <0>         0.1537
     28 C20         2.4152   -4.2300   12.1237 C.ar      1 <0>        -0.0844
     29 C21         1.8290   -5.0401   11.1638 C.ar      1 <0>         0.1379
     30 C22         2.0870   -4.8218    9.8223 C.ar      1 <0>        -0.1979
     31 F1          1.0010   -6.0398   11.5382 F         1 <0>        -0.1348
     32 F2          2.1581   -4.4407   13.4332 F         1 <0>        -0.1422
     33 F3          3.8367   -2.4160   12.6782 F         1 <0>        -0.1348
     34 H1          1.0053    1.8021    0.0021 H         1 <0>         0.0555
     35 H2         -0.5445    1.7859   -0.8732 H         1 <0>         0.0984
     36 H3         -0.5275    1.7763    0.9067 H         1 <0>         0.0565
     37 H4          1.1545    1.2185    2.0079 H         1 <0>         0.1299
     38 H5          2.2855    0.1074    3.8965 H         1 <0>         0.1514
     39 H6          0.2292   -2.5991    0.3147 H         1 <0>         0.1319
     40 H7          0.7404   -4.4707    3.0329 H         1 <0>         0.0906
     41 H8          1.1619   -4.5714    1.3068 H         1 <0>         0.0925
     42 H9          2.8707   -5.5518    2.9288 H         1 <0>         0.0799
     43 H10         3.4940   -4.3702    1.7619 H         1 <0>         0.0662
     44 H11         1.8015   -3.0175    4.9291 H         1 <0>         0.0931
     45 H12         2.7261   -1.0259    5.7429 H         1 <0>         0.1152
     46 H13         3.5277   -0.2013    3.5066 H         1 <0>         0.1085
     47 H14         4.6635    0.0924    4.8411 H         1 <0>         0.0735
     48 H15         4.8168   -2.1677    2.8027 H         1 <0>         0.0679
     49 H16         5.8769   -0.7419    2.8806 H         1 <0>         0.0661
     50 H17         6.9795   -2.6996    3.9237 H         1 <0>         0.0791
     51 H18         6.6339   -1.4553    5.1548 H         1 <0>         0.0821
     52 H19         5.9224   -3.8024    5.9053 H         1 <0>         0.1370
     53 H20         4.1923   -2.1881   10.1031 H         1 <0>         0.1224
     54 H21         1.6264   -5.4501    9.0743 H         1 <0>         0.1424
@<TRIPOS>BOND
     1    1    2 1
     2    1   34 1
     3    1   35 1
     4    1   36 1
     5    2    3 1
     6    3    8 ar
     7    3    4 ar
     8    4    5 ar
     9    4   37 1
    10    5    6 ar
    11    5   38 1
    12    6   12 1
    13    6    7 ar
    14    7    8 ar
    15    7    9 1
    16    8   39 1
    17    9   10 1
    18    9   40 1
    19    9   41 1
    20   10   11 1
    21   10   42 1
    22   10   43 1
    23   11   18 am
    24   11   12 1
    25   12   13 1
    26   12   44 1
    27   13   20 1
    28   13   14 1
    29   13   45 1
    30   14   15 1
    31   14   46 1
    32   14   47 1
    33   15   16 1
    34   15   48 1
    35   15   49 1
    36   16   17 1
    37   16   50 1
    38   16   51 1
    39   17   18 1
    40   17   20 1
    41   17   52 1
    42   18   19 2
    43   20   21 1
    44   21   22 2
    45   21   23 2
    46   21   24 1
    47   24   25 1
    48   25   30 ar
    49   25   26 ar
    50   26   27 ar
    51   26   53 1
    52   27   28 ar
    53   27   33 1
    54   28   29 ar
    55   28   32 1
    56   29   30 ar
    57   29   31 1
    58   30   54 1
@<TRIPOS>MOLECULE
CHEMBL201785__5
   55    59     0     0     0
SMALL
USER_CHARGES

@<TRIPOS>ATOM
      1 C1          0.0101    1.2591    1.1873 C.3       1 <0>         0.0256
      2 O1          0.0499   -0.1274    0.8434 O.3       1 <0>        -0.3152
      3 C2         -1.1432   -0.7565    0.6777 C.ar      1 <0>         0.1418
      4 C3         -2.3270   -0.0506    0.8377 C.ar      1 <0>        -0.2110
      5 C4         -3.5435   -0.6879    0.6690 C.ar      1 <0>        -0.0722
      6 C5         -3.5715   -2.0251    0.3426 C.ar      1 <0>        -0.1408
      7 C6         -2.3894   -2.7337    0.1835 C.ar      1 <0>        -0.0314
      8 C7         -1.1764   -2.1046    0.3427 C.ar      1 <0>        -0.1413
      9 C8         -2.4945   -4.1944   -0.1692 C.3       1 <0>        -0.0934
     10 C9         -3.5354   -4.8621    0.7237 C.3       1 <0>         0.1200
     11 N1         -4.7761   -4.0748    0.8034 N.am      1 <0>        -0.5907
     12 C10        -4.8643   -2.7743    0.1454 C.3       1 <0>         0.1883
     13 C11        -6.0282   -1.9358    0.6534 C.3       1 <0>         0.1425
     14 C12        -5.7058   -1.3082    2.0064 C.3       1 <0>        -0.1645
     15 C13        -5.5935   -2.3819    3.0878 C.3       1 <0>        -0.1253
     16 C14        -6.8909   -3.1950    3.1515 C.3       1 <0>        -0.1231
     17 C15        -7.0793   -3.8857    1.7855 C.3       1 <0>         0.1449
     18 C16        -5.7999   -4.6222    1.4819 C.2       1 <0>         0.5147
     19 O2         -5.6881   -5.7661    1.8690 O.2       1 <0>        -0.5308
     20 N2         -7.2132   -2.8026    0.7868 N.pl3     1 <0>        -0.9993
     21 S1         -8.5871   -2.5808   -0.1108 S.o2      1 <0>         2.7820
     22 O3         -9.6700   -3.0472    0.6822 O.2       1 <0>        -0.9479
     23 O4         -8.5306   -1.2549   -0.6189 O.2       1 <0>        -0.9533
     24 N3         -8.4869   -3.5930   -1.4176 N.pl3     1 <0>        -1.0627
     25 C17        -7.4449   -3.4454   -2.3379 C.ar      1 <0>         0.1976
     26 C18        -7.1090   -2.1838   -2.8109 C.ar      1 <0>        -0.1796
     27 C19        -6.0773   -2.0391   -3.7212 C.ar      1 <0>         0.1303
     28 C20        -5.3791   -3.1528   -4.1612 C.ar      1 <0>         0.0255
     29 C21        -5.7137   -4.4128   -3.6902 C.ar      1 <0>         0.1232
     30 C22        -6.7412   -4.5597   -2.7755 C.ar      1 <0>        -0.1484
     31 F1         -5.0325   -5.4973   -4.1204 F         1 <0>        -0.1100
     32 F2         -4.3719   -3.0101   -5.0502 F         1 <0>        -0.1109
     33 F3         -5.7505   -0.8118   -4.1819 F         1 <0>        -0.1072
     34 H1          1.0272    1.6375    1.2894 H         1 <0>         0.1025
     35 H2         -0.5068    1.8131    0.4038 H         1 <0>         0.0582
     36 H3         -0.5205    1.3841    2.1312 H         1 <0>         0.0574
     37 H4         -2.2988    0.9980    1.0947 H         1 <0>         0.1334
     38 H5         -4.4657   -0.1396    0.7931 H         1 <0>         0.1497
     39 H6         -0.2566   -2.6555    0.2122 H         1 <0>         0.1355
     40 H7         -2.7929   -4.2954   -1.2127 H         1 <0>         0.0872
     41 H8         -1.5272   -4.6743   -0.0205 H         1 <0>         0.0981
     42 H9         -3.7665   -5.8489    0.3224 H         1 <0>         0.0831
     43 H10        -3.1225   -4.9761    1.7260 H         1 <0>         0.0729
     44 H11        -5.0077   -2.9375   -0.9227 H         1 <0>         0.0796
     45 H12        -6.2406   -1.1420   -0.0626 H         1 <0>         0.1217
     46 H13        -4.7609   -0.7694    1.9361 H         1 <0>         0.1179
     47 H14        -6.4976   -0.6092    2.2756 H         1 <0>         0.0796
     48 H15        -4.7612   -3.0457    2.8540 H         1 <0>         0.0712
     49 H16        -5.4162   -1.9069    4.0527 H         1 <0>         0.0753
     50 H17        -6.8181   -3.9459    3.9382 H         1 <0>         0.0880
     51 H18        -7.7331   -2.5319    3.3494 H         1 <0>         0.0883
     52 H19        -7.9398   -4.5547    1.7861 H         1 <0>         0.1412
     53 H20        -9.1512   -4.2884   -1.5445 H         1 <0>         0.4348
     54 H21        -7.6530   -1.3160   -2.4685 H         1 <0>         0.1851
     55 H22        -6.9986   -5.5410   -2.4051 H         1 <0>         0.1614
@<TRIPOS>BOND
     1    1    2 1
     2    1   34 1
     3    1   35 1
     4    1   36 1
     5    2    3 1
     6    3    8 ar
     7    3    4 ar
     8    4    5 ar
     9    4   37 1
    10    5    6 ar
    11    5   38 1
    12    6   12 1
    13    6    7 ar
    14    7    8 ar
    15    7    9 1
    16    8   39 1
    17    9   10 1
    18    9   40 1
    19    9   41 1
    20   10   11 1
    21   10   42 1
    22   10   43 1
    23   11   18 am
    24   11   12 1
    25   12   13 1
    26   12   44 1
    27   13   20 1
    28   13   14 1
    29   13   45 1
    30   14   15 1
    31   14   46 1
    32   14   47 1
    33   15   16 1
    34   15   48 1
    35   15   49 1
    36   16   17 1
    37   16   50 1
    38   16   51 1
    39   17   18 1
    40   17   20 1
    41   17   52 1
    42   18   19 2
    43   20   21 1
    44   21   22 2
    45   21   23 2
    46   21   24 1
    47   24   25 1
    48   24   53 1
    49   25   30 ar
    50   25   26 ar
    51   26   27 ar
    52   26   54 1
    53   27   28 ar
    54   27   33 1
    55   28   29 ar
    56   28   32 1
    57   29   30 ar
    58   29   31 1
    59   30   55 1
@<TRIPOS>MOLECULE
CHEMBL201785__6
   54    58     0     0     0
SMALL
USER_CHARGES

@<TRIPOS>ATOM
      1 C1         -0.0173    1.4248    0.0099 C.3       1 <0>         0.0268
      2 O1          0.0021   -0.0041    0.0020 O.3       1 <0>        -0.3195
      3 C2          0.6258   -0.6184    1.0415 C.ar      1 <0>         0.1298
      4 C3          1.2029    0.1372    2.0522 C.ar      1 <0>        -0.2002
      5 C4          1.8288   -0.4962    3.1050 C.ar      1 <0>        -0.0568
      6 C5          1.8893   -1.8815    3.1592 C.ar      1 <0>        -0.1313
      7 C6          1.3252   -2.6365    2.1525 C.ar      1 <0>        -0.0291
      8 C7          0.6829   -2.0002    1.0988 C.ar      1 <0>        -0.1562
      9 C8          1.3808   -4.1412    2.1342 C.3       1 <0>        -0.0987
     10 C9          1.6736   -4.6997    3.5260 C.3       1 <0>         0.1051
     11 N1          2.8053   -3.9313    4.0871 N.am      1 <0>        -0.5940
     12 C10         2.5726   -2.5194    4.3386 C.3       1 <0>         0.1882
     13 C11         3.8139   -1.7418    4.7377 C.3       1 <0>         0.1496
     14 C12         3.9113   -1.6860    6.2681 C.3       1 <0>        -0.1311
     15 C13         4.0426   -3.1098    6.8136 C.3       1 <0>        -0.1209
     16 C14         5.2999   -3.7689    6.2434 C.3       1 <0>        -0.1231
     17 C15         5.2044   -3.8108    4.7141 C.3       1 <0>         0.1465
     18 C16         3.9604   -4.5704    4.3204 C.2       1 <0>         0.5270
     19 O2          4.0067   -5.7777    4.2140 O.2       1 <0>        -0.5444
     20 N2          5.0173   -2.4250    4.2309 N.pl3     1 <0>        -0.9815
     21 S1          6.0835   -1.6942    3.1957 S.o2      1 <0>         2.7186
     22 O3          6.7523   -2.7366    2.4990 O.2       1 <0>        -1.0357
     23 O4          5.3614   -0.6706    2.5248 O.2       1 <0>        -1.0297
     24 N3          7.2262   -0.9364    4.1243 N.2       1 <0>        -1.0902
     25 C17         8.2660   -0.2287    3.5139 C.ar      1 <0>         0.3266
     26 C18         8.3379   -0.1560    2.1290 C.ar      1 <0>        -0.2880
     27 C19         9.3670    0.5450    1.5262 C.ar      1 <0>         0.1535
     28 C20        10.3262    1.1746    2.3040 C.ar      1 <0>        -0.0850
     29 C21        10.2559    1.1025    3.6865 C.ar      1 <0>         0.1377
     30 C22         9.2245    0.4069    4.2919 C.ar      1 <0>        -0.1986
     31 F1         11.1917    1.7163    4.4431 F         1 <0>        -0.1349
     32 F2         11.3307    1.8589    1.7141 F         1 <0>        -0.1423
     33 F3          9.4375    0.6155    0.1789 F         1 <0>        -0.1349
     34 H1          1.0053    1.8021    0.0021 H         1 <0>         0.0578
     35 H2         -0.5445    1.7859   -0.8732 H         1 <0>         0.0980
     36 H3         -0.5275    1.7763    0.9067 H         1 <0>         0.0548
     37 H4          1.1623    1.2158    2.0142 H         1 <0>         0.1304
     38 H5          2.2759    0.0907    3.8937 H         1 <0>         0.1307
     39 H6          0.2283   -2.5880    0.3151 H         1 <0>         0.1287
     40 H7          0.4234   -4.5299    1.7873 H         1 <0>         0.0889
     41 H8          2.1651   -4.4615    1.4484 H         1 <0>         0.0834
     42 H9          0.7964   -4.5844    4.1628 H         1 <0>         0.0759
     43 H10         1.9423   -5.7535    3.4526 H         1 <0>         0.1044
     44 H11         1.8815   -2.4546    5.1790 H         1 <0>         0.0852
     45 H12         3.7634   -0.7338    4.3257 H         1 <0>         0.1180
     46 H13         4.7860   -1.1031    6.5567 H         1 <0>         0.0879
     47 H14         3.0124   -1.2217    6.6738 H         1 <0>         0.0738
     48 H15         4.1122   -3.0763    7.9009 H         1 <0>         0.0705
     49 H16         3.1664   -3.6906    6.5253 H         1 <0>         0.0606
     50 H17         6.1774   -3.1928    6.5372 H         1 <0>         0.0915
     51 H18         5.3854   -4.7843    6.6302 H         1 <0>         0.0773
     52 H19         6.0936   -4.2694    4.2816 H         1 <0>         0.1345
     53 H20         7.5909   -0.6468    1.5228 H         1 <0>         0.1217
     54 H21         9.1673    0.3548    5.3691 H         1 <0>         0.1430
@<TRIPOS>BOND
     1    1    2 1
     2    1   34 1
     3    1   35 1
     4    1   36 1
     5    2    3 1
     6    3    8 ar
     7    3    4 ar
     8    4    5 ar
     9    4   37 1
    10    5    6 ar
    11    5   38 1
    12    6   12 1
    13    6    7 ar
    14    7    8 ar
    15    7    9 1
    16    8   39 1
    17    9   10 1
    18    9   40 1
    19    9   41 1
    20   10   11 1
    21   10   42 1
    22   10   43 1
    23   11   18 am
    24   11   12 1
    25   12   13 1
    26   12   44 1
    27   13   20 1
    28   13   14 1
    29   13   45 1
    30   14   15 1
    31   14   46 1
    32   14   47 1
    33   15   16 1
    34   15   48 1
    35   15   49 1
    36   16   17 1
    37   16   50 1
    38   16   51 1
    39   17   18 1
    40   17   20 1
    41   17   52 1
    42   18   19 2
    43   20   21 1
    44   21   22 2
    45   21   23 2
    46   21   24 1
    47   24   25 1
    48   25   30 ar
    49   25   26 ar
    50   26   27 ar
    51   26   53 1
    52   27   28 ar
    53   27   33 1
    54   28   29 ar
    55   28   32 1
    56   29   30 ar
    57   29   31 1
    58   30   54 1
@<TRIPOS>MOLECULE
CHEMBL201785__7
   55    59     0     0     0
SMALL
USER_CHARGES

@<TRIPOS>ATOM
      1 C1          0.3520   -0.3000   -0.3850 C.3       1 <0>         0.0258
      2 O1          0.0813   -1.6962   -0.2450 O.3       1 <0>        -0.3164
      3 C2         -1.2240   -2.0671   -0.1700 C.ar      1 <0>         0.1375
      4 C3         -2.2251   -1.1086   -0.2355 C.ar      1 <0>        -0.2008
      5 C4         -3.5465   -1.4962   -0.1636 C.ar      1 <0>        -0.0635
      6 C5         -3.8819   -2.8353   -0.0225 C.ar      1 <0>        -0.1433
      7 C6         -2.8902   -3.7907    0.0521 C.ar      1 <0>        -0.0242
      8 C7         -1.5597   -3.4030   -0.0337 C.ar      1 <0>        -0.1540
      9 C8         -3.1833   -5.2563    0.2349 C.3       1 <0>        -0.1008
     10 C9         -4.6238   -5.5840   -0.1556 C.3       1 <0>         0.1054
     11 N1         -5.4995   -4.5767    0.4803 N.am      1 <0>        -0.5929
     12 C10        -5.3402   -3.2025    0.0365 C.3       1 <0>         0.1906
     13 C11        -6.1270   -2.1878    0.8467 C.3       1 <0>         0.1409
     14 C12        -7.4785   -1.9295    0.1673 C.3       1 <0>        -0.1337
     15 C13        -8.2771   -3.2345    0.1291 C.3       1 <0>        -0.1261
     16 C14        -8.5079   -3.7421    1.5538 C.3       1 <0>        -0.1245
     17 C15        -7.1557   -3.9863    2.2330 C.3       1 <0>         0.1400
     18 C16        -6.3689   -4.9831    1.4164 C.2       1 <0>         0.5254
     19 O2         -6.5260   -6.1700    1.6100 O.2       1 <0>        -0.5294
     20 N2         -6.3912   -2.7202    2.1952 N.pl3     1 <0>        -0.9961
     21 S1         -5.8706   -1.9561    3.5691 S.o2      1 <0>         2.7797
     22 O3         -5.6692   -2.9687    4.5455 O.2       1 <0>        -0.9500
     23 O4         -4.8376   -1.0650    3.1716 O.2       1 <0>        -0.9491
     24 N3         -7.1224   -1.0176    4.1117 N.pl3     1 <0>        -1.0628
     25 C17        -7.6229    0.0122    3.3095 C.ar      1 <0>         0.2008
     26 C18        -6.7494    0.8806    2.6682 C.ar      1 <0>        -0.1794
     27 C19        -7.2460    1.8989    1.8742 C.ar      1 <0>         0.1304
     28 C20        -8.6147    2.0525    1.7186 C.ar      1 <0>         0.0250
     29 C21        -9.4878    1.1866    2.3585 C.ar      1 <0>         0.1241
     30 C22        -8.9937    0.1640    3.1485 C.ar      1 <0>        -0.1498
     31 F1        -10.8216    1.3380    2.2062 F         1 <0>        -0.1105
     32 F2         -9.0984    3.0473    0.9430 F         1 <0>        -0.1117
     33 F3         -6.3964    2.7442    1.2506 F         1 <0>        -0.1084
     34 H1          1.4294   -0.1418   -0.4329 H         1 <0>         0.1018
     35 H2         -0.1106    0.0698   -1.3000 H         1 <0>         0.0570
     36 H3         -0.0563    0.2368    0.4713 H         1 <0>         0.0577
     37 H4         -1.9708   -0.0644   -0.3418 H         1 <0>         0.1329
     38 H5         -4.3268   -0.7514   -0.2172 H         1 <0>         0.1281
     39 H6         -0.7804   -4.1493    0.0110 H         1 <0>         0.1324
     40 H7         -2.5032   -5.8372   -0.3882 H         1 <0>         0.0937
     41 H8         -3.0264   -5.5246    1.2796 H         1 <0>         0.0854
     42 H9         -4.7329   -5.5378   -1.2391 H         1 <0>         0.0806
     43 H10        -4.8861   -6.5800    0.2011 H         1 <0>         0.1081
     44 H11        -5.7221   -3.1499   -0.9830 H         1 <0>         0.0926
     45 H12        -5.5597   -1.2602    0.9231 H         1 <0>         0.1238
     46 H13        -8.0326   -1.1795    0.7316 H         1 <0>         0.0764
     47 H14        -7.3131   -1.5736   -0.8496 H         1 <0>         0.0875
     48 H15        -9.2386   -3.0569   -0.3526 H         1 <0>         0.0792
     49 H16        -7.7220   -3.9827   -0.4367 H         1 <0>         0.0703
     50 H17        -9.0692   -2.9976    2.1185 H         1 <0>         0.0840
     51 H18        -9.0717   -4.6743    1.5206 H         1 <0>         0.0904
     52 H19        -7.2924   -4.3416    3.2544 H         1 <0>         0.1390
     53 H20        -7.5084   -1.1823    4.9862 H         1 <0>         0.4342
     54 H21        -5.6829    0.7613    2.7896 H         1 <0>         0.1840
     55 H22        -9.6741   -0.5135    3.6431 H         1 <0>         0.1624
@<TRIPOS>BOND
     1    1    2 1
     2    1   34 1
     3    1   35 1
     4    1   36 1
     5    2    3 1
     6    3    8 ar
     7    3    4 ar
     8    4    5 ar
     9    4   37 1
    10    5    6 ar
    11    5   38 1
    12    6   12 1
    13    6    7 ar
    14    7    8 ar
    15    7    9 1
    16    8   39 1
    17    9   10 1
    18    9   40 1
    19    9   41 1
    20   10   11 1
    21   10   42 1
    22   10   43 1
    23   11   18 am
    24   11   12 1
    25   12   13 1
    26   12   44 1
    27   13   20 1
    28   13   14 1
    29   13   45 1
    30   14   15 1
    31   14   46 1
    32   14   47 1
    33   15   16 1
    34   15   48 1
    35   15   49 1
    36   16   17 1
    37   16   50 1
    38   16   51 1
    39   17   18 1
    40   17   20 1
    41   17   52 1
    42   18   19 2
    43   20   21 1
    44   21   22 2
    45   21   23 2
    46   21   24 1
    47   24   25 1
    48   24   53 1
    49   25   30 ar
    50   25   26 ar
    51   26   27 ar
    52   26   54 1
    53   27   28 ar
    54   27   33 1
    55   28   29 ar
    56   28   32 1
    57   29   30 ar
    58   29   31 1
    59   30   55 1
@<TRIPOS>MOLECULE
CHEMBL148982
   74    76     0     0     0
SMALL
USER_CHARGES

@<TRIPOS>ATOM
      1 C1         -2.7212    1.2318    2.7290 C.3       1 <0>         0.0207
      2 O1         -1.5922    1.1467    1.8571 O.3       1 <0>        -0.2977
      3 C2         -0.4162    0.7424    2.4074 C.ar      1 <0>         0.1372
      4 C3         -0.3548    0.4307    3.7508 C.ar      1 <0>        -0.1658
      5 C4          0.8571    0.0139    4.3168 C.ar      1 <0>        -0.0995
      6 C5          2.0028   -0.0850    3.5165 C.ar      1 <0>        -0.1728
      7 C6          1.9339    0.2283    2.1739 C.ar      1 <0>         0.1399
      8 C7          0.7248    0.6377    1.6129 C.ar      1 <0>         0.0726
      9 O2          0.6595    0.9397    0.2906 O.3       1 <0>        -0.3112
     10 C8          0.9219    2.2949   -0.0791 C.3       1 <0>         0.0359
     11 O3          3.0455    0.1325    1.3963 O.3       1 <0>        -0.2973
     12 C9          4.2489   -0.2984    2.0350 C.3       1 <0>         0.0225
     13 C10         0.9266   -0.3186    5.7476 C.2       1 <0>         0.4055
     14 O4         -0.0405   -0.1405    6.4599 O.2       1 <0>        -0.4085
     15 C11         2.1856   -0.8747    6.3241 C.2       1 <0>         0.4893
     16 O5          2.4021   -2.0678    6.2714 O.2       1 <0>        -0.4737
     17 N1          3.0824   -0.0521    6.9034 N.am      1 <0>        -0.5944
     18 C12         2.7833    1.3754    7.0811 C.3       1 <0>         0.1077
     19 C13         3.9188    2.1977    6.4637 C.3       1 <0>        -0.1391
     20 C14         5.2522    1.7547    7.0701 C.3       1 <0>        -0.1184
     21 C15         5.4952    0.2782    6.7489 C.3       1 <0>        -0.1233
     22 C16         4.3753   -0.5670    7.3747 C.3       1 <0>         0.1548
     23 C17         4.5301   -2.0056    6.9534 C.2       1 <0>         0.4678
     24 O6          4.3255   -2.3245    5.8061 O.2       1 <0>        -0.4728
     25 O7          4.8951   -2.9327    7.8529 O.3       1 <0>        -0.3518
     26 C18         5.0226   -4.2766    7.3841 C.3       1 <0>         0.0709
     27 C19         5.4429   -5.1832    8.5427 C.3       1 <0>        -0.1182
     28 C20         5.5794   -6.6220    8.0407 C.3       1 <0>        -0.1182
     29 C21         5.9996   -7.5286    9.1993 C.3       1 <0>        -0.1133
     30 C22         6.1361   -8.9675    8.6974 C.3       1 <0>        -0.0873
     31 C23         4.7662   -9.4853    8.2546 C.3       1 <0>        -0.1168
     32 C24         4.9026  -10.9242    7.7527 C.3       1 <0>        -0.1211
     33 C25         5.4424  -11.8081    8.8789 C.3       1 <0>        -0.1207
     34 C26         6.8123  -11.2903    9.3216 C.3       1 <0>        -0.1204
     35 C27         6.6758   -9.8515    9.8236 C.3       1 <0>        -0.1147
     36 H1         -2.5112    1.9439    3.5270 H         1 <0>         0.0600
     37 H2         -3.5920    1.5651    2.1644 H         1 <0>         0.1078
     38 H3         -2.9216    0.2511    3.1606 H         1 <0>         0.0609
     39 H4         -1.2399    0.5085    4.3648 H         1 <0>         0.1505
     40 H5          2.9387   -0.4057    3.9495 H         1 <0>         0.1462
     41 H6          0.1995    2.9505    0.4071 H         1 <0>         0.0476
     42 H7          1.9294    2.5685    0.2344 H         1 <0>         0.0475
     43 H8          0.8369    2.3994   -1.1607 H         1 <0>         0.0971
     44 H9          4.1004   -1.2922    2.4573 H         1 <0>         0.0638
     45 H10         5.0567   -0.3312    1.3039 H         1 <0>         0.1070
     46 H11         4.5077    0.3997    2.8312 H         1 <0>         0.0559
     47 H12         1.8445    1.6168    6.5827 H         1 <0>         0.0854
     48 H13         2.7040    1.6025    8.1442 H         1 <0>         0.0870
     49 H14         3.9386    2.0385    5.3855 H         1 <0>         0.0720
     50 H15         3.7575    3.2552    6.6728 H         1 <0>         0.0874
     51 H16         6.0593    2.3552    6.6505 H         1 <0>         0.0798
     52 H17         5.2227    1.8911    8.1511 H         1 <0>         0.0741
     53 H18         5.5002    0.1371    5.6681 H         1 <0>         0.0798
     54 H19         6.4559   -0.0304    7.1611 H         1 <0>         0.0895
     55 H20         4.4232   -0.4950    8.4612 H         1 <0>         0.1127
     56 H21         4.0658   -4.6150    6.9865 H         1 <0>         0.0700
     57 H22         5.7773   -4.3173    6.5986 H         1 <0>         0.0651
     58 H23         6.3997   -4.8448    8.9402 H         1 <0>         0.0730
     59 H24         4.6882   -5.1424    9.3281 H         1 <0>         0.0733
     60 H25         4.6225   -6.9605    7.6432 H         1 <0>         0.0684
     61 H26         6.3340   -6.6628    7.2553 H         1 <0>         0.0650
     62 H27         6.9564   -7.1902    9.5969 H         1 <0>         0.0637
     63 H28         5.2450   -7.4879    9.9848 H         1 <0>         0.0637
     64 H29         6.8248   -8.9940    7.8530 H         1 <0>         0.0695
     65 H30         4.0775   -9.4589    9.0991 H         1 <0>         0.0612
     66 H31         4.3817   -8.8556    7.4523 H         1 <0>         0.0633
     67 H32         3.9267  -11.2931    7.4373 H         1 <0>         0.0603
     68 H33         5.5914  -10.9506    6.9083 H         1 <0>         0.0605
     69 H34         4.7537  -11.7817    9.7233 H         1 <0>         0.0606
     70 H35         5.5396  -12.8332    8.5213 H         1 <0>         0.0597
     71 H36         7.1968  -11.9201   10.1239 H         1 <0>         0.0605
     72 H37         7.5010  -11.3168    8.4772 H         1 <0>         0.0606
     73 H38         7.6518   -9.4826   10.1390 H         1 <0>         0.0607
     74 H39         5.9871   -9.8250   10.6680 H         1 <0>         0.0614
@<TRIPOS>BOND
     1    1    2 1
     2    1   36 1
     3    1   37 1
     4    1   38 1
     5    2    3 1
     6    3    8 ar
     7    3    4 ar
     8    4    5 ar
     9    4   39 1
    10    5    6 ar
    11    5   13 1
    12    6    7 ar
    13    6   40 1
    14    7    8 ar
    15    7   11 1
    16    8    9 1
    17    9   10 1
    18   10   41 1
    19   10   42 1
    20   10   43 1
    21   11   12 1
    22   12   44 1
    23   12   45 1
    24   12   46 1
    25   13   14 2
    26   13   15 1
    27   15   16 2
    28   15   17 am
    29   17   22 1
    30   17   18 1
    31   18   19 1
    32   18   47 1
    33   18   48 1
    34   19   20 1
    35   19   49 1
    36   19   50 1
    37   20   21 1
    38   20   51 1
    39   20   52 1
    40   21   22 1
    41   21   53 1
    42   21   54 1
    43   22   23 1
    44   22   55 1
    45   23   24 2
    46   23   25 1
    47   25   26 1
    48   26   27 1
    49   26   56 1
    50   26   57 1
    51   27   28 1
    52   27   58 1
    53   27   59 1
    54   28   29 1
    55   28   60 1
    56   28   61 1
    57   29   30 1
    58   29   62 1
    59   29   63 1
    60   30   35 1
    61   30   31 1
    62   30   64 1
    63   31   32 1
    64   31   65 1
    65   31   66 1
    66   32   33 1
    67   32   67 1
    68   32   68 1
    69   33   34 1
    70   33   69 1
    71   33   70 1
    72   34   35 1
    73   34   71 1
    74   34   72 1
    75   35   73 1
    76   35   74 1
@<TRIPOS>MOLECULE
CHEMBL148982__1
   74    76     0     0     0
SMALL
USER_CHARGES

@<TRIPOS>ATOM
      1 C1          5.9075    2.2317   -0.6891 C.3       1 <0>         0.0203
      2 O1          7.1423    1.8529   -0.0777 O.3       1 <0>        -0.2972
      3 C2          7.0705    1.2669    1.1474 C.ar      1 <0>         0.1394
      4 C3          5.8417    1.0579    1.7406 C.ar      1 <0>        -0.1651
      5 C4          5.7686    0.4537    3.0025 C.ar      1 <0>        -0.0969
      6 C5          6.9439    0.0638    3.6579 C.ar      1 <0>        -0.1777
      7 C6          8.1692    0.2760    3.0586 C.ar      1 <0>         0.1413
      8 C7          8.2378    0.8728    1.8003 C.ar      1 <0>         0.0725
      9 O2          9.4445    1.0749    1.2114 O.3       1 <0>        -0.3110
     10 C8         10.0988    2.3161    1.4821 C.3       1 <0>         0.0356
     11 O3          9.3106   -0.1021    3.6940 O.3       1 <0>        -0.2966
     12 C9          9.1665   -0.7126    4.9781 C.3       1 <0>         0.0216
     13 C10         4.4614    0.2297    3.6379 C.2       1 <0>         0.4034
     14 O4          3.4512    0.6524    3.1135 O.2       1 <0>        -0.4046
     15 C11         4.3766   -0.5171    4.9271 C.2       1 <0>         0.4893
     16 O5          4.3251   -1.7297    4.9238 O.2       1 <0>        -0.4757
     17 N1          4.3572    0.1550    6.0952 N.am      1 <0>        -0.5924
     18 C12         4.3113    1.6235    6.1132 C.3       1 <0>         0.1062
     19 C13         3.1305    2.0693    6.9813 C.3       1 <0>        -0.1392
     20 C14         3.2489    1.4271    8.3654 C.3       1 <0>        -0.1171
     21 C15         3.1998   -0.0964    8.2286 C.3       1 <0>        -0.1278
     22 C16         4.3753   -0.5670    7.3747 C.3       1 <0>         0.1571
     23 C17         4.2522   -2.0474    7.1211 C.2       1 <0>         0.4642
     24 O6          3.3069   -2.4781    6.5042 O.2       1 <0>        -0.4662
     25 O7          5.1928   -2.8875    7.5807 O.3       1 <0>        -0.3546
     26 C18         5.0122   -4.2777    7.3039 C.3       1 <0>         0.0701
     27 C19         6.1752   -5.0721    7.9018 C.3       1 <0>        -0.1169
     28 C20         5.9818   -6.5606    7.6053 C.3       1 <0>        -0.1189
     29 C21         7.1447   -7.3550    8.2033 C.3       1 <0>        -0.1127
     30 C22         6.9513   -8.8434    7.9068 C.3       1 <0>        -0.0878
     31 C23         5.7015   -9.3493    8.6299 C.3       1 <0>        -0.1162
     32 C24         5.5081  -10.8378    8.3334 C.3       1 <0>        -0.1213
     33 C25         6.7305  -11.6180    8.8213 C.3       1 <0>        -0.1205
     34 C26         7.9803  -11.1121    8.0983 C.3       1 <0>        -0.1207
     35 C27         8.1737   -9.6236    8.3947 C.3       1 <0>        -0.1146
     36 H1          5.3912    2.9490   -0.0511 H         1 <0>         0.0604
     37 H2          6.1070    2.6862   -1.6595 H         1 <0>         0.1083
     38 H3          5.2825    1.3488   -0.8230 H         1 <0>         0.0614
     39 H4          4.9377    1.3600    1.2327 H         1 <0>         0.1512
     40 H5          6.8913   -0.4019    4.6309 H         1 <0>         0.1407
     41 H6          9.4680    3.1398    1.1477 H         1 <0>         0.0479
     42 H7         10.2770    2.4068    2.5536 H         1 <0>         0.0478
     43 H8         11.0504    2.3486    0.9515 H         1 <0>         0.0975
     44 H9          8.5693   -1.6195    4.8842 H         1 <0>         0.0603
     45 H10        10.1506   -0.9648    5.3729 H         1 <0>         0.1087
     46 H11         8.6697   -0.0189    5.6564 H         1 <0>         0.0581
     47 H12         5.2396    2.0129    6.5311 H         1 <0>         0.0859
     48 H13         4.1801    1.9975    5.0978 H         1 <0>         0.0863
     49 H14         3.1420    3.1546    7.0817 H         1 <0>         0.0871
     50 H15         2.1968    1.7565    6.5139 H         1 <0>         0.0747
     51 H16         4.1942    1.7204    8.8221 H         1 <0>         0.0729
     52 H17         2.4232    1.7621    8.9931 H         1 <0>         0.0797
     53 H18         3.2607   -0.5525    9.2167 H         1 <0>         0.0887
     54 H19         2.2655   -0.3888    7.7494 H         1 <0>         0.0830
     55 H20         5.3090   -0.3601    7.8977 H         1 <0>         0.1118
     56 H21         4.0753   -4.6174    7.7452 H         1 <0>         0.0648
     57 H22         4.9830   -4.4326    6.2253 H         1 <0>         0.0698
     58 H23         7.1121   -4.7324    7.4604 H         1 <0>         0.0723
     59 H24         6.2044   -4.9172    8.9803 H         1 <0>         0.0730
     60 H25         5.0448   -6.9002    8.0467 H         1 <0>         0.0681
     61 H26         5.9525   -6.7154    6.5268 H         1 <0>         0.0655
     62 H27         8.0817   -7.0153    7.7619 H         1 <0>         0.0635
     63 H28         7.1740   -7.2001    9.2818 H         1 <0>         0.0636
     64 H29         6.8332   -8.9877    6.8329 H         1 <0>         0.0697
     65 H30         5.8196   -9.2051    9.7038 H         1 <0>         0.0611
     66 H31         4.8307   -8.7935    8.2823 H         1 <0>         0.0631
     67 H32         4.6177  -11.1982    8.8485 H         1 <0>         0.0602
     68 H33         5.3900  -10.9820    7.2595 H         1 <0>         0.0606
     69 H34         6.8486  -11.4738    9.8953 H         1 <0>         0.0605
     70 H35         6.5927  -12.6784    8.6101 H         1 <0>         0.0597
     71 H36         8.8512  -11.6679    8.4459 H         1 <0>         0.0605
     72 H37         7.8622  -11.2564    7.0243 H         1 <0>         0.0607
     73 H38         9.0641   -9.2632    7.8796 H         1 <0>         0.0607
     74 H39         8.2918   -9.4794    9.4687 H         1 <0>         0.0613
@<TRIPOS>BOND
     1    1    2 1
     2    1   36 1
     3    1   37 1
     4    1   38 1
     5    2    3 1
     6    3    8 ar
     7    3    4 ar
     8    4    5 ar
     9    4   39 1
    10    5    6 ar
    11    5   13 1
    12    6    7 ar
    13    6   40 1
    14    7    8 ar
    15    7   11 1
    16    8    9 1
    17    9   10 1
    18   10   41 1
    19   10   42 1
    20   10   43 1
    21   11   12 1
    22   12   44 1
    23   12   45 1
    24   12   46 1
    25   13   14 2
    26   13   15 1
    27   15   16 2
    28   15   17 am
    29   17   22 1
    30   17   18 1
    31   18   19 1
    32   18   47 1
    33   18   48 1
    34   19   20 1
    35   19   49 1
    36   19   50 1
    37   20   21 1
    38   20   51 1
    39   20   52 1
    40   21   22 1
    41   21   53 1
    42   21   54 1
    43   22   23 1
    44   22   55 1
    45   23   24 2
    46   23   25 1
    47   25   26 1
    48   26   27 1
    49   26   56 1
    50   26   57 1
    51   27   28 1
    52   27   58 1
    53   27   59 1
    54   28   29 1
    55   28   60 1
    56   28   61 1
    57   29   30 1
    58   29   62 1
    59   29   63 1
    60   30   35 1
    61   30   31 1
    62   30   64 1
    63   31   32 1
    64   31   65 1
    65   31   66 1
    66   32   33 1
    67   32   67 1
    68   32   68 1
    69   33   34 1
    70   33   69 1
    71   33   70 1
    72   34   35 1
    73   34   71 1
    74   34   72 1
    75   35   73 1
    76   35   74 1
@<TRIPOS>MOLECULE
CHEMBL285079
   64    68     0     0     0
SMALL
USER_CHARGES

@<TRIPOS>ATOM
      1 C1         -0.2356    1.4977    0.2300 C.ar      1 <0>        -0.0867
      2 C2          0.9422    2.2200    0.2590 C.ar      1 <0>        -0.1516
      3 C3          2.1584    1.5590    0.2908 C.ar      1 <0>         0.0947
      4 C4          2.1930    0.1748    0.2935 C.ar      1 <0>        -0.1509
      5 C5          1.0138   -0.5454    0.2645 C.ar      1 <0>        -0.0857
      6 C6         -0.1999    0.1157    0.2328 C.ar      1 <0>        -0.0926
      7 C7         -1.4850   -0.6707    0.2011 C.3       1 <0>        -0.0775
      8 C8         -1.8833   -0.9388   -1.2516 C.3       1 <0>        -0.1125
      9 C9         -3.1880   -1.7373   -1.2837 C.3       1 <0>         0.0689
     10 O1         -3.5600   -1.9876   -2.6405 O.3       1 <0>        -0.3504
     11 C10        -4.6903   -2.6823   -2.8443 C.2       1 <0>         0.4570
     12 O2         -5.3423   -3.0652   -1.9018 O.2       1 <0>        -0.4717
     13 C11        -5.1461   -2.9848   -4.2485 C.3       1 <0>         0.1600
     14 H1         -4.3809   -3.5589   -4.7709 H         1 <0>         0.1298
     15 C12        -5.4230   -1.6687   -5.0053 C.3       1 <0>        -0.1197
     16 C13        -6.6815   -2.0096   -5.8464 C.3       1 <0>        -0.1283
     17 C14        -7.4520   -2.9497   -4.8860 C.3       1 <0>         0.0799
     18 N1         -6.4042   -3.7447   -4.2130 N.pl3     1 <0>        -0.5718
     19 C15        -6.5713   -4.9619   -3.6590 C.2       1 <0>         0.5894
     20 N2         -7.7802   -5.5569   -3.6915 N.pl3     1 <0>        -0.6758
     21 C16        -7.9369   -6.9251   -3.1919 C.3       1 <0>         0.1936
     22 C17        -9.3798   -7.3853   -3.4093 C.3       1 <0>        -0.1152
     23 C18        -9.5434   -8.8143   -2.8875 C.3       1 <0>        -0.0766
     24 C19        -9.2154   -8.8524   -1.3936 C.3       1 <0>        -0.1134
     25 C20        -7.7726   -8.3922   -1.1763 C.3       1 <0>        -0.0765
     26 C21        -7.6089   -6.9633   -1.6980 C.3       1 <0>        -0.1440
     27 C22        -6.8212   -9.3228   -1.9312 C.3       1 <0>        -0.1066
     28 C23        -7.1492   -9.2847   -3.4251 C.3       1 <0>        -0.0755
     29 C24        -8.5921   -9.7449   -3.6425 C.3       1 <0>        -0.1131
     30 C25        -6.9856   -7.8557   -3.9469 C.3       1 <0>        -0.1448
     31 S1         -5.2480   -5.7523   -2.9141 S.2       1 <0>        -0.6062
     32 F1          3.3105    2.2640    0.3187 F         1 <0>        -0.1398
     33 H2         -1.1845    2.0131    0.2097 H         1 <0>         0.1327
     34 H3          0.9141    3.2996    0.2565 H         1 <0>         0.1358
     35 H4          3.1411   -0.3419    0.3179 H         1 <0>         0.1363
     36 H5          1.0406   -1.6250    0.2662 H         1 <0>         0.1339
     37 H6         -1.3436   -1.6188    0.7200 H         1 <0>         0.0801
     38 H7         -2.2722   -0.1005    0.6944 H         1 <0>         0.0785
     39 H8         -2.0246    0.0093   -1.7704 H         1 <0>         0.0761
     40 H9         -1.0961   -1.5090   -1.7448 H         1 <0>         0.0782
     41 H10        -3.0466   -2.6854   -0.7648 H         1 <0>         0.0715
     42 H11        -3.9752   -1.1670   -0.7905 H         1 <0>         0.0655
     43 H12        -5.6338   -0.8590   -4.3066 H         1 <0>         0.0869
     44 H13        -4.5844   -1.4123   -5.6527 H         1 <0>         0.1077
     45 H14        -7.2611   -1.1124   -6.0635 H         1 <0>         0.0985
     46 H15        -6.4084   -2.5284   -6.7653 H         1 <0>         0.0882
     47 H16        -8.0156   -2.3678   -4.1567 H         1 <0>         0.0829
     48 H17        -8.1191   -3.6028   -5.4487 H         1 <0>         0.0856
     49 H18       -10.0575   -6.7223   -2.8715 H         1 <0>         0.0661
     50 H19        -9.6134   -7.3581   -4.4736 H         1 <0>         0.0659
     51 H20       -10.5713   -9.1421   -3.0424 H         1 <0>         0.0740
     52 H21        -9.8932   -8.1895   -0.8558 H         1 <0>         0.0601
     53 H22        -9.3320   -9.8705   -1.0219 H         1 <0>         0.0646
     54 H23        -7.5389   -8.4194   -0.1120 H         1 <0>         0.0716
     55 H24        -6.5810   -6.6354   -1.5432 H         1 <0>         0.1275
     56 H25        -8.2867   -6.3003   -1.1602 H         1 <0>         0.0505
     57 H26        -5.7933   -8.9950   -1.7764 H         1 <0>         0.0700
     58 H27        -6.9378  -10.3409   -1.5595 H         1 <0>         0.0590
     59 H28        -6.4715   -9.9477   -3.9629 H         1 <0>         0.0721
     60 H29        -8.7086  -10.7629   -3.2708 H         1 <0>         0.0649
     61 H30        -8.8257   -9.7177   -4.7068 H         1 <0>         0.0601
     62 H31        -7.2192   -7.8285   -5.0112 H         1 <0>         0.0507
     63 H32        -5.9577   -7.5279   -3.7920 H         1 <0>         0.1243
     64 H33        -8.5465   -5.0791   -4.0456 H         1 <0>         0.3938
@<TRIPOS>BOND
     1    1    6 ar
     2    1    2 ar
     3    1   33 1
     4    2    3 ar
     5    2   34 1
     6    3    4 ar
     7    3   32 1
     8    4    5 ar
     9    4   35 1
    10    5    6 ar
    11    5   36 1
    12    6    7 1
    13    7    8 1
    14    7   37 1
    15    7   38 1
    16    8    9 1
    17    8   39 1
    18    8   40 1
    19    9   10 1
    20    9   41 1
    21    9   42 1
    22   10   11 1
    23   11   12 2
    24   11   13 1
    25   13   14 1
    26   13   18 1
    27   13   15 1
    28   15   16 1
    29   15   43 1
    30   15   44 1
    31   16   17 1
    32   16   45 1
    33   16   46 1
    34   17   18 1
    35   17   47 1
    36   17   48 1
    37   18   19 1
    38   19   20 1
    39   19   31 2
    40   20   21 1
    41   20   64 1
    42   21   26 1
    43   21   30 1
    44   21   22 1
    45   22   23 1
    46   22   49 1
    47   22   50 1
    48   23   29 1
    49   23   24 1
    50   23   51 1
    51   24   25 1
    52   24   52 1
    53   24   53 1
    54   25   26 1
    55   25   27 1
    56   25   54 1
    57   26   55 1
    58   26   56 1
    59   27   28 1
    60   27   57 1
    61   27   58 1
    62   28   29 1
    63   28   30 1
    64   28   59 1
    65   29   60 1
    66   29   61 1
    67   30   62 1
    68   30   63 1
@<TRIPOS>MOLECULE
CHEMBL419598
   59    61     0     0     0
SMALL
USER_CHARGES

@<TRIPOS>ATOM
      1 C1         -0.0187    1.5258    0.0104 C.3       1 <0>        -0.1552
      2 C2          0.0021   -0.0041    0.0020 C.3       1 <0>        -0.1068
      3 C3         -1.4333   -0.5336    0.0129 C.3       1 <0>        -0.0875
      4 C4         -2.1494   -0.0402    1.2717 C.3       1 <0>        -0.1465
      5 C5         -2.1733   -0.0268   -1.2266 C.3       1 <0>        -0.1454
      6 C6         -1.4129   -2.0405    0.0046 C.2       1 <0>         0.3660
      7 O1         -0.3588   -2.6301   -0.0086 O.2       1 <0>        -0.4187
      8 C7         -2.6937   -2.8034    0.0127 C.2       1 <0>         0.5019
      9 O2         -3.7529   -2.2110    0.0260 O.2       1 <0>        -0.4939
     10 N1         -2.6754   -4.1510    0.0053 N.am      1 <0>        -0.5831
     11 C8         -1.4781   -5.0172   -0.0043 C.3       1 <0>         0.1450
     12 H1         -0.8701   -4.8314    0.8811 H         1 <0>         0.1178
     13 C9         -2.0277   -6.4775    0.0134 C.3       1 <0>        -0.0977
     14 C10        -2.6502   -6.6624   -1.4058 C.3       1 <0>        -0.1316
     15 C11        -3.8628   -5.7024   -1.4144 C.3       1 <0>        -0.1366
     16 C12        -3.8596   -5.0576    0.0117 C.3       1 <0>         0.1253
     17 C13        -3.3265   -6.2538    0.8693 C.3       1 <0>        -0.1321
     18 C14        -0.6690   -4.7764   -1.2527 C.2       1 <0>         0.4754
     19 O3         -1.1774   -4.2383   -2.2077 O.2       1 <0>        -0.5041
     20 O4          0.6164   -5.1597   -1.3038 O.3       1 <0>        -0.3429
     21 C15         1.3230   -4.9001   -2.5184 C.3       1 <0>         0.0683
     22 C16         2.7621   -5.4033   -2.3887 C.3       1 <0>        -0.1115
     23 C17         3.5187   -5.1254   -3.6892 C.3       1 <0>        -0.0779
     24 C18         4.9361   -5.6210   -3.5615 C.ar      1 <0>        -0.0828
     25 C19         5.9205   -4.7817   -3.0742 C.ar      1 <0>        -0.1161
     26 C20         7.2207   -5.2363   -2.9571 C.ar      1 <0>        -0.1178
     27 C21         7.5364   -6.5303   -3.3268 C.ar      1 <0>        -0.1231
     28 C22         6.5518   -7.3699   -3.8133 C.ar      1 <0>        -0.1180
     29 C23         5.2508   -6.9166   -3.9264 C.ar      1 <0>        -0.1164
     30 H2          1.0039    1.9031    0.0027 H         1 <0>         0.0582
     31 H3         -0.5459    1.8868   -0.8726 H         1 <0>         0.0601
     32 H4         -0.5289    1.8773    0.9072 H         1 <0>         0.0605
     33 H5          0.5123   -0.3556   -0.8948 H         1 <0>         0.0669
     34 H6          0.5293   -0.3651    0.8851 H         1 <0>         0.0686
     35 H7         -2.1642    1.0497    1.2777 H         1 <0>         0.0764
     36 H8         -3.1720   -0.4175    1.2794 H         1 <0>         0.0782
     37 H9         -1.6223   -0.4013    2.1547 H         1 <0>         0.0564
     38 H10        -1.6631   -0.3783   -2.1234 H         1 <0>         0.0561
     39 H11        -3.1959   -0.4041   -1.2189 H         1 <0>         0.0778
     40 H12        -2.1881    1.0631   -1.2207 H         1 <0>         0.0758
     41 H13        -1.3407   -7.2506    0.3575 H         1 <0>         0.1337
     42 H14        -1.9336   -6.3792   -2.1768 H         1 <0>         0.0689
     43 H15        -2.9778   -7.6923   -1.5477 H         1 <0>         0.0802
     44 H16        -3.7368   -4.9371   -2.1802 H         1 <0>         0.0789
     45 H17        -4.7865   -6.2575   -1.5782 H         1 <0>         0.0817
     46 H18        -4.7983   -4.6071    0.3341 H         1 <0>         0.1317
     47 H19        -3.9942   -7.1148    0.8372 H         1 <0>         0.1009
     48 H20        -3.0990   -5.9537    1.8922 H         1 <0>         0.0854
     49 H21         0.8306   -5.4161   -3.3426 H         1 <0>         0.0667
     50 H22         1.3292   -3.8277   -2.7130 H         1 <0>         0.0673
     51 H23         3.2545   -4.8873   -1.5645 H         1 <0>         0.0774
     52 H24         2.7558   -6.4758   -2.1941 H         1 <0>         0.0767
     53 H25         3.0262   -5.6414   -4.5134 H         1 <0>         0.0763
     54 H26         3.5249   -4.0529   -3.8839 H         1 <0>         0.0763
     55 H27         5.6738   -3.7707   -2.7853 H         1 <0>         0.1215
     56 H28         7.9899   -4.5804   -2.5770 H         1 <0>         0.1223
     57 H29         8.5523   -6.8853   -3.2359 H         1 <0>         0.1217
     58 H30         6.7985   -8.3808   -4.1024 H         1 <0>         0.1223
     59 H31         4.4808   -7.5737   -4.3029 H         1 <0>         0.1215
@<TRIPOS>BOND
     1    1    2 1
     2    1   30 1
     3    1   31 1
     4    1   32 1
     5    2    3 1
     6    2   33 1
     7    2   34 1
     8    3    4 1
     9    3    5 1
    10    3    6 1
    11    4   35 1
    12    4   36 1
    13    4   37 1
    14    5   38 1
    15    5   39 1
    16    5   40 1
    17    6    7 2
    18    6    8 1
    19    8    9 2
    20    8   10 am
    21   10   16 1
    22   10   11 1
    23   11   12 1
    24   11   13 1
    25   11   18 1
    26   13   17 1
    27   13   14 1
    28   13   41 1
    29   14   15 1
    30   14   42 1
    31   14   43 1
    32   15   16 1
    33   15   44 1
    34   15   45 1
    35   16   17 1
    36   16   46 1
    37   17   47 1
    38   17   48 1
    39   18   19 2
    40   18   20 1
    41   20   21 1
    42   21   22 1
    43   21   49 1
    44   21   50 1
    45   22   23 1
    46   22   51 1
    47   22   52 1
    48   23   24 1
    49   23   53 1
    50   23   54 1
    51   24   29 ar
    52   24   25 ar
    53   25   26 ar
    54   25   55 1
    55   26   27 ar
    56   26   56 1
    57   27   28 ar
    58   27   57 1
    59   28   29 ar
    60   28   58 1
    61   29   59 1
@<TRIPOS>MOLECULE
CHEMBL419598__1
   59    61     0     0     0
SMALL
USER_CHARGES

@<TRIPOS>ATOM
      1 C1         -0.0187    1.5258    0.0104 C.3       1 <0>        -0.1552
      2 C2          0.0021   -0.0041    0.0020 C.3       1 <0>        -0.1067
      3 C3         -1.4333   -0.5336    0.0129 C.3       1 <0>        -0.0874
      4 C4         -2.1494   -0.0402    1.2717 C.3       1 <0>        -0.1464
      5 C5         -2.1733   -0.0268   -1.2266 C.3       1 <0>        -0.1455
      6 C6         -1.4129   -2.0405    0.0046 C.2       1 <0>         0.3668
      7 O1         -0.3588   -2.6301   -0.0086 O.2       1 <0>        -0.4188
      8 C7         -2.6937   -2.8034    0.0127 C.2       1 <0>         0.5021
      9 O2         -3.7529   -2.2110    0.0260 O.2       1 <0>        -0.4938
     10 N1         -2.6754   -4.1510    0.0053 N.am      1 <0>        -0.5834
     11 C8         -1.4781   -5.0172   -0.0043 C.3       1 <0>         0.1479
     12 H1         -0.8864   -4.8541    0.8964 H         1 <0>         0.1192
     13 C9         -2.0279   -6.4772   -0.0335 C.3       1 <0>        -0.0988
     14 C10        -2.6388   -6.6777    1.3887 C.3       1 <0>        -0.1197
     15 C11        -3.8512   -5.7178    1.4177 C.3       1 <0>        -0.1390
     16 C12        -3.8596   -5.0576    0.0117 C.3       1 <0>         0.1280
     17 C13        -3.3336   -6.2443   -0.8762 C.3       1 <0>        -0.1405
     18 C14        -0.6463   -4.7453   -1.2312 C.2       1 <0>         0.4708
     19 O3         -1.1372   -4.1831   -2.1814 O.2       1 <0>        -0.5058
     20 O4          0.6398   -5.1277   -1.2685 O.3       1 <0>        -0.3428
     21 C15         1.3685   -4.8379   -2.4631 C.3       1 <0>         0.0683
     22 C16         2.8049   -5.3448   -2.3199 C.3       1 <0>        -0.1115
     23 C17         3.5851   -5.0345   -3.5989 C.3       1 <0>        -0.0779
     24 C18         5.0000   -5.5337   -3.4579 C.ar      1 <0>        -0.0828
     25 C19         5.9753   -4.7075   -2.9316 C.ar      1 <0>        -0.1161
     26 C20         7.2732   -5.1654   -2.8023 C.ar      1 <0>        -0.1178
     27 C21         7.5956   -6.4499   -3.1987 C.ar      1 <0>        -0.1232
     28 C22         6.6201   -7.2764   -3.7242 C.ar      1 <0>        -0.1180
     29 C23         5.3214   -6.8199   -3.8495 C.ar      1 <0>        -0.1165
     30 H2          1.0039    1.9031    0.0027 H         1 <0>         0.0582
     31 H3         -0.5459    1.8868   -0.8726 H         1 <0>         0.0601
     32 H4         -0.5289    1.8773    0.9072 H         1 <0>         0.0604
     33 H5          0.5123   -0.3556   -0.8948 H         1 <0>         0.0670
     34 H6          0.5293   -0.3651    0.8851 H         1 <0>         0.0685
     35 H7         -2.1642    1.0497    1.2777 H         1 <0>         0.0764
     36 H8         -3.1720   -0.4175    1.2794 H         1 <0>         0.0782
     37 H9         -1.6223   -0.4013    2.1547 H         1 <0>         0.0562
     38 H10        -1.6631   -0.3783   -2.1234 H         1 <0>         0.0564
     39 H11        -3.1959   -0.4041   -1.2189 H         1 <0>         0.0777
     40 H12        -2.1881    1.0631   -1.2207 H         1 <0>         0.0758
     41 H13        -1.3437   -7.2465   -0.3916 H         1 <0>         0.1292
     42 H14        -2.9652   -7.7091    1.5220 H         1 <0>         0.0824
     43 H15        -1.9159   -6.4028    2.1568 H         1 <0>         0.0749
     44 H16        -4.7735   -6.2747    1.5830 H         1 <0>         0.0856
     45 H17        -3.7189   -4.9609    2.1908 H         1 <0>         0.0741
     46 H18        -4.8042   -4.6037   -0.2877 H         1 <0>         0.1294
     47 H19        -3.1146   -5.9331   -1.8976 H         1 <0>         0.0843
     48 H20        -4.0011   -7.1056   -0.8480 H         1 <0>         0.0995
     49 H21         0.8912   -5.3327   -3.3089 H         1 <0>         0.0669
     50 H22         1.3782   -3.7609   -2.6304 H         1 <0>         0.0673
     51 H23         3.2822   -4.8500   -1.4740 H         1 <0>         0.0773
     52 H24         2.7952   -6.4218   -2.1525 H         1 <0>         0.0766
     53 H25         3.1078   -5.5293   -4.4447 H         1 <0>         0.0764
     54 H26         3.5949   -3.9574   -3.7663 H         1 <0>         0.0764
     55 H27         5.7234   -3.7040   -2.6219 H         1 <0>         0.1215
     56 H28         8.0353   -4.5196   -2.3918 H         1 <0>         0.1223
     57 H29         8.6097   -6.8074   -3.0983 H         1 <0>         0.1216
     58 H30         6.8721   -8.2798   -4.0342 H         1 <0>         0.1223
     59 H31         4.5584   -7.4670   -4.2566 H         1 <0>         0.1215
@<TRIPOS>BOND
     1    1    2 1
     2    1   30 1
     3    1   31 1
     4    1   32 1
     5    2    3 1
     6    2   33 1
     7    2   34 1
     8    3    4 1
     9    3    5 1
    10    3    6 1
    11    4   35 1
    12    4   36 1
    13    4   37 1
    14    5   38 1
    15    5   39 1
    16    5   40 1
    17    6    7 2
    18    6    8 1
    19    8    9 2
    20    8   10 am
    21   10   16 1
    22   10   11 1
    23   11   12 1
    24   11   13 1
    25   11   18 1
    26   13   17 1
    27   13   14 1
    28   13   41 1
    29   14   15 1
    30   14   42 1
    31   14   43 1
    32   15   16 1
    33   15   44 1
    34   15   45 1
    35   16   17 1
    36   16   46 1
    37   17   47 1
    38   17   48 1
    39   18   19 2
    40   18   20 1
    41   20   21 1
    42   21   22 1
    43   21   49 1
    44   21   50 1
    45   22   23 1
    46   22   51 1
    47   22   52 1
    48   23   24 1
    49   23   53 1
    50   23   54 1
    51   24   29 ar
    52   24   25 ar
    53   25   26 ar
    54   25   55 1
    55   26   27 ar
    56   26   56 1
    57   27   28 ar
    58   27   57 1
    59   28   29 ar
    60   28   58 1
    61   29   59 1
@<TRIPOS>MOLECULE
CHEMBL149669
   63    67     0     0     0
SMALL
USER_CHARGES

@<TRIPOS>ATOM
      1 C1         -0.0167    1.3776    0.0096 C.ar      1 <0>        -0.1703
      2 C2          1.1849    2.0698    0.0019 C.ar      1 <0>        -0.0726
      3 C3          2.3651    1.3426   -0.0133 C.ar      1 <0>        -0.1340
      4 C4          2.3054   -0.0383   -0.0202 C.ar      1 <0>         0.1035
      5 N1          1.1443   -0.6632   -0.0129 N.ar      1 <0>        -0.4829
      6 C5          0.0021   -0.0041    0.0020 C.ar      1 <0>         0.0940
      7 C6          3.6964    2.0488   -0.0227 C.3       1 <0>        -0.0739
      8 C7          4.1610    2.2805    1.4165 C.3       1 <0>        -0.1122
      9 C8          5.5125    2.9975    1.4069 C.3       1 <0>         0.0693
     10 O1          5.9465    3.2139    2.7512 O.3       1 <0>        -0.3507
     11 C9          7.1237    3.8366    2.9187 C.2       1 <0>         0.4576
     12 O2          7.7646    4.1864    1.9560 O.2       1 <0>        -0.4716
     13 C10         7.6461    4.0995    4.3076 C.3       1 <0>         0.1615
     14 C11         6.6765    5.0306    5.0656 C.3       1 <0>        -0.1198
     15 C12         7.6340    5.9498    5.8690 C.3       1 <0>        -0.1283
     16 C13         8.8171    6.1057    4.8812 C.3       1 <0>         0.0803
     17 N2          8.9429    4.7881    4.2320 N.pl3     1 <0>        -0.5722
     18 C14        10.0616    4.2961    3.6638 C.2       1 <0>         0.5893
     19 S1         10.0454    2.7408    2.9484 S.2       1 <0>        -0.6245
     20 N3         11.1930    5.0284    3.6588 N.pl3     1 <0>        -0.6741
     21 C15        12.4091    4.4935    3.0412 C.3       1 <0>         0.1589
     22 C16        13.1531    3.6198    4.0530 C.3       1 <0>        -0.0932
     23 C17        13.5291    4.4613    5.2743 C.3       1 <0>        -0.1076
     24 C18        14.4310    5.6179    4.8386 C.3       1 <0>        -0.0872
     25 C19        15.7010    5.0593    4.1936 C.3       1 <0>        -0.1076
     26 C20        15.3250    4.2178    2.9723 C.3       1 <0>        -0.0894
     27 C21        14.4231    3.0612    3.4080 C.3       1 <0>        -0.1040
     28 C22        14.5809    5.0915    1.9605 C.3       1 <0>        -0.1034
     29 C23        13.3109    5.6501    2.6055 C.3       1 <0>        -0.0941
     30 C24        13.6869    6.4916    3.8268 C.3       1 <0>        -0.1098
     31 H1         -0.9552    1.9117    0.0259 H         1 <0>         0.1357
     32 H2          1.2009    3.1496    0.0072 H         1 <0>         0.1339
     33 H3          3.2203   -0.6121   -0.0320 H         1 <0>         0.1555
     34 H4         -0.9294   -0.5505    0.0083 H         1 <0>         0.1559
     35 H5          4.4293    1.4355   -0.5468 H         1 <0>         0.0822
     36 H6          3.5953    3.0079   -0.5308 H         1 <0>         0.0788
     37 H7          3.4280    2.8939    1.9406 H         1 <0>         0.0750
     38 H8          4.2620    1.3215    1.9245 H         1 <0>         0.0785
     39 H9          6.2455    2.3842    0.8828 H         1 <0>         0.0722
     40 H10         5.4115    3.9566    0.8989 H         1 <0>         0.0656
     41 H11         7.7570    3.1583    4.8461 H         1 <0>         0.1294
     42 H12         6.0773    5.6145    4.3669 H         1 <0>         0.0868
     43 H13         6.0378    4.4575    5.7377 H         1 <0>         0.1075
     44 H14         7.1684    6.9133    6.0761 H         1 <0>         0.0983
     45 H15         7.9564    5.4670    6.7916 H         1 <0>         0.0882
     46 H16         8.5941    6.8738    4.1405 H         1 <0>         0.0824
     47 H17         9.7317    6.3518    5.4205 H         1 <0>         0.0841
     48 H18        11.2022    5.9096    4.0641 H         1 <0>         0.3937
     49 H19        12.1412    3.8941    2.1711 H         1 <0>         0.1156
     50 H20        12.5106    2.7958    4.3634 H         1 <0>         0.0878
     51 H21        12.6244    4.8592    5.7338 H         1 <0>         0.0531
     52 H22        14.0592    3.8388    5.9951 H         1 <0>         0.0656
     53 H23        14.6989    6.2173    5.7087 H         1 <0>         0.0700
     54 H24        16.3435    5.8833    3.8832 H         1 <0>         0.0624
     55 H25        16.2311    4.4368    4.9144 H         1 <0>         0.0638
     56 H26        16.2297    3.8199    2.5128 H         1 <0>         0.0742
     57 H27        14.9532    2.4388    4.1288 H         1 <0>         0.0671
     58 H28        14.1552    2.4617    2.5379 H         1 <0>         0.0693
     59 H29        15.2234    5.9155    1.6501 H         1 <0>         0.0694
     60 H30        14.3130    4.4921    1.0904 H         1 <0>         0.0690
     61 H31        12.7808    6.2726    1.8846 H         1 <0>         0.0759
     62 H32        12.7822    6.8895    4.2863 H         1 <0>         0.0521
     63 H33        14.3294    7.3156    3.5164 H         1 <0>         0.0700
@<TRIPOS>BOND
     1    1    6 ar
     2    1    2 ar
     3    1   31 1
     4    2    3 ar
     5    2   32 1
     6    3    4 ar
     7    3    7 1
     8    4    5 ar
     9    4   33 1
    10    5    6 ar
    11    6   34 1
    12    7    8 1
    13    7   35 1
    14    7   36 1
    15    8    9 1
    16    8   37 1
    17    8   38 1
    18    9   10 1
    19    9   39 1
    20    9   40 1
    21   10   11 1
    22   11   12 2
    23   11   13 1
    24   13   17 1
    25   13   14 1
    26   13   41 1
    27   14   15 1
    28   14   42 1
    29   14   43 1
    30   15   16 1
    31   15   44 1
    32   15   45 1
    33   16   17 1
    34   16   46 1
    35   16   47 1
    36   17   18 1
    37   18   19 2
    38   18   20 1
    39   20   21 1
    40   20   48 1
    41   21   29 1
    42   21   22 1
    43   21   49 1
    44   22   27 1
    45   22   23 1
    46   22   50 1
    47   23   24 1
    48   23   51 1
    49   23   52 1
    50   24   30 1
    51   24   25 1
    52   24   53 1
    53   25   26 1
    54   25   54 1
    55   25   55 1
    56   26   27 1
    57   26   28 1
    58   26   56 1
    59   27   57 1
    60   27   58 1
    61   28   29 1
    62   28   59 1
    63   28   60 1
    64   29   30 1
    65   29   61 1
    66   30   62 1
    67   30   63 1
@<TRIPOS>MOLECULE
CHEMBL149669__1
   63    67     0     0     0
SMALL
USER_CHARGES

@<TRIPOS>ATOM
      1 C1         -0.0167    1.3776    0.0096 C.ar      1 <0>        -0.1694
      2 C2          1.1849    2.0698    0.0019 C.ar      1 <0>        -0.0718
      3 C3          2.3651    1.3426   -0.0133 C.ar      1 <0>        -0.1339
      4 C4          2.3054   -0.0383   -0.0202 C.ar      1 <0>         0.1023
      5 N1          1.1443   -0.6632   -0.0129 N.ar      1 <0>        -0.4836
      6 C5          0.0021   -0.0041    0.0020 C.ar      1 <0>         0.0938
      7 C6          3.6964    2.0488   -0.0227 C.3       1 <0>        -0.0739
      8 C7          4.1610    2.2805    1.4165 C.3       1 <0>        -0.1122
      9 C8          5.5125    2.9975    1.4069 C.3       1 <0>         0.0695
     10 O1          5.9465    3.2139    2.7512 O.3       1 <0>        -0.3509
     11 C9          7.1237    3.8366    2.9187 C.2       1 <0>         0.4575
     12 O2          7.7646    4.1864    1.9560 O.2       1 <0>        -0.4711
     13 C10         7.6461    4.0995    4.3076 C.3       1 <0>         0.1614
     14 C11         7.8794    2.7626    5.0424 C.3       1 <0>        -0.1199
     15 C12         9.1842    3.0271    5.8391 C.3       1 <0>        -0.1284
     16 C13         9.9686    3.9347    4.8590 C.3       1 <0>         0.0803
     17 N2          8.9429    4.7881    4.2320 N.pl3     1 <0>        -0.5721
     18 C14         9.1584    5.9988    3.6805 C.2       1 <0>         0.5894
     19 S1          7.8560    6.8685    2.9889 S.2       1 <0>        -0.6252
     20 N3         10.3993    6.5249    3.6735 N.pl3     1 <0>        -0.6744
     21 C15        10.6335    7.8410    3.0740 C.3       1 <0>         0.1590
     22 C16        10.8503    7.6839    1.5676 C.3       1 <0>        -0.0929
     23 C17        12.0639    6.7863    1.3178 C.3       1 <0>        -0.1070
     24 C18        13.3055    7.4203    1.9483 C.3       1 <0>        -0.0875
     25 C19        13.5501    8.7947    1.3222 C.3       1 <0>        -0.1075
     26 C20        12.3365    9.6923    1.5720 C.3       1 <0>        -0.0894
     27 C21        11.0949    9.0583    0.9415 C.3       1 <0>        -0.1039
     28 C22        12.1197    9.8493    3.0784 C.3       1 <0>        -0.1030
     29 C23        11.8750    8.4749    3.7045 C.3       1 <0>        -0.0939
     30 C24        13.0887    7.5774    3.4547 C.3       1 <0>        -0.1097
     31 H1         -0.9552    1.9117    0.0259 H         1 <0>         0.1362
     32 H2          1.2009    3.1496    0.0072 H         1 <0>         0.1350
     33 H3          3.2203   -0.6121   -0.0320 H         1 <0>         0.1543
     34 H4         -0.9294   -0.5505    0.0083 H         1 <0>         0.1560
     35 H5          4.4293    1.4355   -0.5468 H         1 <0>         0.0807
     36 H6          3.5953    3.0079   -0.5308 H         1 <0>         0.0802
     37 H7          3.4280    2.8939    1.9406 H         1 <0>         0.0771
     38 H8          4.2620    1.3215    1.9245 H         1 <0>         0.0765
     39 H9          6.2455    2.3842    0.8828 H         1 <0>         0.0663
     40 H10         5.4115    3.9566    0.8989 H         1 <0>         0.0713
     41 H11         6.9337    4.7105    4.8620 H         1 <0>         0.1292
     42 H12         7.0524    2.5446    5.7181 H         1 <0>         0.1075
     43 H13         8.0207    1.9503    4.3295 H         1 <0>         0.0870
     44 H14         8.9732    3.5500    6.7720 H         1 <0>         0.0882
     45 H15         9.7224    2.0980    6.0270 H         1 <0>         0.0984
     46 H16        10.6899    4.5453    5.4021 H         1 <0>         0.0842
     47 H17        10.4730    3.3312    4.1043 H         1 <0>         0.0824
     48 H18        11.1372    6.0322    4.0653 H         1 <0>         0.3939
     49 H19         9.7689    8.4804    3.2519 H         1 <0>         0.1153
     50 H20         9.9658    7.2322    1.1184 H         1 <0>         0.0893
     51 H21        11.8896    5.8072    1.7639 H         1 <0>         0.0535
     52 H22        12.2184    6.6744    0.2446 H         1 <0>         0.0647
     53 H23        14.1701    6.7809    1.7704 H         1 <0>         0.0697
     54 H24        14.4346    9.2464    1.7715 H         1 <0>         0.0623
     55 H25        13.7045    8.6828    0.2491 H         1 <0>         0.0635
     56 H26        12.5108   10.6714    1.1260 H         1 <0>         0.0740
     57 H27        11.2494    8.9464   -0.1317 H         1 <0>         0.0666
     58 H28        10.2303    9.6977    1.1194 H         1 <0>         0.0688
     59 H29        13.0042   10.3010    3.5276 H         1 <0>         0.0694
     60 H30        11.2551   10.4888    3.2563 H         1 <0>         0.0689
     61 H31        11.7206    8.5868    4.7777 H         1 <0>         0.0758
     62 H32        12.9144    6.5982    3.9008 H         1 <0>         0.0521
     63 H33        13.9732    8.0290    3.9040 H         1 <0>         0.0700
@<TRIPOS>BOND
     1    1    6 ar
     2    1    2 ar
     3    1   31 1
     4    2    3 ar
     5    2   32 1
     6    3    4 ar
     7    3    7 1
     8    4    5 ar
     9    4   33 1
    10    5    6 ar
    11    6   34 1
    12    7    8 1
    13    7   35 1
    14    7   36 1
    15    8    9 1
    16    8   37 1
    17    8   38 1
    18    9   10 1
    19    9   39 1
    20    9   40 1
    21   10   11 1
    22   11   12 2
    23   11   13 1
    24   13   17 1
    25   13   14 1
    26   13   41 1
    27   14   15 1
    28   14   42 1
    29   14   43 1
    30   15   16 1
    31   15   44 1
    32   15   45 1
    33   16   17 1
    34   16   46 1
    35   16   47 1
    36   17   18 1
    37   18   19 2
    38   18   20 1
    39   20   21 1
    40   20   48 1
    41   21   29 1
    42   21   22 1
    43   21   49 1
    44   22   27 1
    45   22   23 1
    46   22   50 1
    47   23   24 1
    48   23   51 1
    49   23   52 1
    50   24   30 1
    51   24   25 1
    52   24   53 1
    53   25   26 1
    54   25   54 1
    55   25   55 1
    56   26   27 1
    57   26   28 1
    58   26   56 1
    59   27   57 1
    60   27   58 1
    61   28   29 1
    62   28   59 1
    63   28   60 1
    64   29   30 1
    65   29   61 1
    66   30   62 1
    67   30   63 1
@<TRIPOS>MOLECULE
CHEMBL285557
   50    52     0     0     0
SMALL
USER_CHARGES

@<TRIPOS>ATOM
      1 C1         -0.0411    1.3572    0.0296 C.ar      1 <0>        -0.1233
      2 C2          1.1462    2.0650    0.0120 C.ar      1 <0>        -0.1182
      3 C3          2.3527    1.3906   -0.0069 C.ar      1 <0>        -0.1166
      4 C4          2.3720    0.0084   -0.0078 C.ar      1 <0>        -0.0829
      5 C5          1.1847   -0.6994    0.0107 C.ar      1 <0>        -0.1161
      6 C6         -0.0218   -0.0250    0.0281 C.ar      1 <0>        -0.1177
      7 C7          3.6873   -0.7268   -0.0294 C.3       1 <0>        -0.0783
      8 C8          4.1557   -0.9762    1.4056 C.3       1 <0>        -0.1118
      9 C9          5.4911   -1.7227    1.3837 C.3       1 <0>         0.0663
     10 O1          5.9287   -1.9556    2.7240 O.3       1 <0>        -0.3495
     11 C10         7.0930   -2.6049    2.8807 C.2       1 <0>         0.4561
     12 O2          7.7199   -2.9636    1.9121 O.2       1 <0>        -0.4917
     13 C11         7.6182   -2.8865    4.2649 C.3       1 <0>         0.1672
     14 H1          6.7993   -3.1891    4.9175 H         1 <0>         0.1152
     15 C12         8.3036   -1.6258    4.8327 C.3       1 <0>        -0.1187
     16 C13         9.5248   -2.2069    5.5932 C.3       1 <0>        -0.1285
     17 C14         9.9168   -3.4002    4.6866 C.3       1 <0>         0.0936
     18 N1          8.6316   -3.9502    4.2083 N.am      1 <0>        -0.6185
     19 C15         8.4213   -5.2140    3.7899 C.2       1 <0>         0.7301
     20 O3          7.3154   -5.5548    3.4167 O.2       1 <0>        -0.5624
     21 N2          9.4368   -6.1001    3.7853 N.am      1 <0>        -0.6805
     22 C16         9.1982   -7.4361    3.4438 C.ar      1 <0>         0.1595
     23 C17         9.9025   -8.4523    4.0760 C.ar      1 <0>        -0.1463
     24 C18         9.6643   -9.7699    3.7371 C.ar      1 <0>        -0.1017
     25 C19         8.7257  -10.0776    2.7694 C.ar      1 <0>        -0.1350
     26 C20         8.0231   -9.0679    2.1377 C.ar      1 <0>        -0.1017
     27 C21         8.2525   -7.7487    2.4762 C.ar      1 <0>        -0.1184
     28 H2         -0.9837    1.8841    0.0489 H         1 <0>         0.1216
     29 H3          1.1311    3.1449    0.0128 H         1 <0>         0.1222
     30 H4          3.2803    1.9436   -0.0213 H         1 <0>         0.1215
     31 H5          1.1998   -1.7793    0.0096 H         1 <0>         0.1219
     32 H6         -0.9494   -0.5780    0.0422 H         1 <0>         0.1224
     33 H7          3.5619   -1.6807   -0.5417 H         1 <0>         0.0770
     34 H8          4.4302   -0.1269   -0.5550 H         1 <0>         0.0766
     35 H9          4.2811   -0.0223    1.9179 H         1 <0>         0.0768
     36 H10         3.4128   -1.5761    1.9313 H         1 <0>         0.0773
     37 H11         5.3658   -2.6766    0.8714 H         1 <0>         0.0690
     38 H12         6.2341   -1.1228    0.8580 H         1 <0>         0.0678
     39 H13         8.6286   -0.9676    4.0270 H         1 <0>         0.0845
     40 H14         7.6377   -1.1000    5.5169 H         1 <0>         0.1040
     41 H15        10.3328   -1.4775    5.6501 H         1 <0>         0.0957
     42 H16         9.2389   -2.5493    6.5878 H         1 <0>         0.0865
     43 H17        10.5198   -3.0562    3.8463 H         1 <0>         0.0767
     44 H18        10.4588   -4.1513    5.2613 H         1 <0>         0.0825
     45 H19        10.3331   -5.8118    4.0187 H         1 <0>         0.4068
     46 H20        10.6359   -8.2126    4.8317 H         1 <0>         0.1242
     47 H21        10.2120  -10.5607    4.2282 H         1 <0>         0.1266
     48 H22         8.5413  -11.1087    2.5061 H         1 <0>         0.1235
     49 H23         7.2909   -9.3115    1.3820 H         1 <0>         0.1253
     50 H24         7.7000   -6.9608    1.9858 H         1 <0>         0.1396
@<TRIPOS>BOND
     1    1    6 ar
     2    1    2 ar
     3    1   28 1
     4    2    3 ar
     5    2   29 1
     6    3    4 ar
     7    3   30 1
     8    4    5 ar
     9    4    7 1
    10    5    6 ar
    11    5   31 1
    12    6   32 1
    13    7    8 1
    14    7   33 1
    15    7   34 1
    16    8    9 1
    17    8   35 1
    18    8   36 1
    19    9   10 1
    20    9   37 1
    21    9   38 1
    22   10   11 1
    23   11   12 2
    24   11   13 1
    25   13   14 1
    26   13   18 1
    27   13   15 1
    28   15   16 1
    29   15   39 1
    30   15   40 1
    31   16   17 1
    32   16   41 1
    33   16   42 1
    34   17   18 1
    35   17   43 1
    36   17   44 1
    37   18   19 am
    38   19   20 2
    39   19   21 am
    40   21   22 1
    41   21   45 1
    42   22   27 ar
    43   22   23 ar
    44   23   24 ar
    45   23   46 1
    46   24   25 ar
    47   24   47 1
    48   25   26 ar
    49   25   48 1
    50   26   27 ar
    51   26   49 1
    52   27   50 1
@<TRIPOS>MOLECULE
CHEMBL381509
   57    61     0     0     0
SMALL
USER_CHARGES

@<TRIPOS>ATOM
      1 C1         -0.0626    1.5529    0.2328 C.3       1 <0>         0.0250
      2 O1         -0.0158    0.1274    0.3216 O.3       1 <0>        -0.3096
      3 C2         -1.2033   -0.5308    0.3011 C.ar      1 <0>         0.1802
      4 C3         -1.2349   -1.9181    0.3492 C.ar      1 <0>        -0.1785
      5 C4         -2.4440   -2.5736    0.3749 C.ar      1 <0>         0.0021
      6 C5         -3.6429   -1.8688    0.3795 C.ar      1 <0>        -0.1669
      7 C6         -3.6088   -0.4983    0.2111 C.ar      1 <0>         0.1916
      8 C7         -2.3900    0.1740    0.1981 C.ar      1 <0>        -0.3051
      9 O2         -4.7380    0.2266   -0.0113 O.3       1 <0>        -0.3094
     10 C8         -4.5820    1.6381   -0.1707 C.3       1 <0>         0.0235
     11 C9         -4.9085   -2.6475    0.6074 C.3       1 <0>         0.2046
     12 C10        -6.0428   -1.7680    1.1057 C.3       1 <0>         0.1423
     13 C11        -5.6610   -0.9191    2.3096 C.3       1 <0>        -0.1197
     14 C12        -5.4471   -1.7666    3.5612 C.3       1 <0>        -0.1308
     15 C13        -6.6989   -2.6046    3.8442 C.3       1 <0>        -0.1246
     16 C14        -6.9204   -3.5275    2.6281 C.3       1 <0>         0.1249
     17 N1         -7.1782   -2.6421    1.4748 N.am      1 <0>        -0.6008
     18 C15        -8.3494   -2.6280    0.8081 C.2       1 <0>         0.5075
     19 O3         -8.5356   -1.8158   -0.0743 O.2       1 <0>        -0.4930
     20 C16        -9.4178   -3.6115    1.1550 C.2       1 <0>         0.3982
     21 O4        -10.1860   -3.3772    2.0640 O.2       1 <0>        -0.3969
     22 C17        -9.5393   -4.8706    0.3910 C.ar      1 <0>        -0.1229
     23 C18        -8.5978   -5.2128   -0.5884 C.ar      1 <0>        -0.1191
     24 C19        -8.7509   -6.3998   -1.2775 C.ar      1 <0>         0.1001
     25 N2         -9.7643   -7.2041   -1.0247 N.ar      1 <0>        -0.4559
     26 C20       -10.6727   -6.9214   -0.1122 C.ar      1 <0>         0.0987
     27 C21       -10.5961   -5.7588    0.6293 C.ar      1 <0>        -0.1074
     28 C22        -5.6108   -4.2257    2.3718 C.2       1 <0>         0.5141
     29 O5         -5.3664   -5.2359    2.9980 O.2       1 <0>        -0.5277
     30 N3         -4.6914   -3.7928    1.4860 N.am      1 <0>        -0.5948
     31 C23        -3.4409   -4.5649    1.4539 C.3       1 <0>         0.1186
     32 C24        -2.5042   -4.0787    0.3582 C.3       1 <0>        -0.0931
     33 H1          0.9513    1.9521    0.2601 H         1 <0>         0.1048
     34 H2         -0.5422    1.8432   -0.7020 H         1 <0>         0.0573
     35 H3         -0.6324    1.9508    1.0724 H         1 <0>         0.0570
     36 H4         -0.3136   -2.4829    0.3672 H         1 <0>         0.1383
     37 H5         -2.3746    1.2508    0.1132 H         1 <0>         0.1402
     38 H6         -5.5570    2.0945   -0.3414 H         1 <0>         0.1060
     39 H7         -4.1369    2.0586    0.7311 H         1 <0>         0.0572
     40 H8         -3.9330    1.8379   -1.0233 H         1 <0>         0.0584
     41 H9         -5.2185   -3.0496   -0.3689 H         1 <0>         0.0792
     42 H10        -6.3824   -1.1219    0.2917 H         1 <0>         0.1349
     43 H11        -4.7478   -0.3609    2.1097 H         1 <0>         0.0845
     44 H12        -6.4650   -0.2018    2.5056 H         1 <0>         0.0740
     45 H13        -4.5868   -2.4178    3.4202 H         1 <0>         0.0700
     46 H14        -5.2573   -1.1063    4.4104 H         1 <0>         0.0762
     47 H15        -6.5435   -3.2055    4.7405 H         1 <0>         0.0910
     48 H16        -7.5598   -1.9515    3.9778 H         1 <0>         0.0892
     49 H17        -7.7330   -4.2320    2.7959 H         1 <0>         0.1288
     50 H18        -7.7655   -4.5584   -0.8014 H         1 <0>         0.1392
     51 H19        -8.0305   -6.6727   -2.0344 H         1 <0>         0.1670
     52 H20       -11.4860   -7.6106    0.0608 H         1 <0>         0.1694
     53 H21       -11.3416   -5.5359    1.3782 H         1 <0>         0.1516
     54 H22        -2.9406   -4.4735    2.4186 H         1 <0>         0.0738
     55 H23        -3.6772   -5.6161    1.2787 H         1 <0>         0.0843
     56 H24        -2.8721   -4.4131   -0.6129 H         1 <0>         0.0924
     57 H25        -1.5050   -4.4837    0.5218 H         1 <0>         0.1001
@<TRIPOS>BOND
     1    1    2 1
     2    1   33 1
     3    1   34 1
     4    1   35 1
     5    2    3 1
     6    3    8 ar
     7    3    4 ar
     8    4    5 ar
     9    4   36 1
    10    5   32 1
    11    5    6 ar
    12    6    7 ar
    13    6   11 1
    14    7    8 ar
    15    7    9 1
    16    8   37 1
    17    9   10 1
    18   10   38 1
    19   10   39 1
    20   10   40 1
    21   11   30 1
    22   11   12 1
    23   11   41 1
    24   12   17 1
    25   12   13 1
    26   12   42 1
    27   13   14 1
    28   13   43 1
    29   13   44 1
    30   14   15 1
    31   14   45 1
    32   14   46 1
    33   15   16 1
    34   15   47 1
    35   15   48 1
    36   16   17 1
    37   16   28 1
    38   16   49 1
    39   17   18 am
    40   18   19 2
    41   18   20 1
    42   20   21 2
    43   20   22 1
    44   22   27 ar
    45   22   23 ar
    46   23   24 ar
    47   23   50 1
    48   24   25 ar
    49   24   51 1
    50   25   26 ar
    51   26   27 ar
    52   26   52 1
    53   27   53 1
    54   28   29 2
    55   28   30 am
    56   30   31 1
    57   31   32 1
    58   31   54 1
    59   31   55 1
    60   32   56 1
    61   32   57 1
@<TRIPOS>MOLECULE
CHEMBL381509__1
   57    61     0     0     0
SMALL
USER_CHARGES

@<TRIPOS>ATOM
      1 C1         -0.1343    1.7573    0.1737 C.3       1 <0>         0.0254
      2 O1         -0.0204    0.3330    0.1899 O.3       1 <0>        -0.3114
      3 C2         -1.1778   -0.3789    0.1633 C.ar      1 <0>         0.1753
      4 C3         -1.1422   -1.7633    0.1827 C.ar      1 <0>        -0.1883
      5 C4         -2.3173   -2.5018    0.1520 C.ar      1 <0>         0.0086
      6 C5         -3.5296   -1.8482    0.0943 C.ar      1 <0>        -0.1687
      7 C6         -3.5695   -0.4565    0.0832 C.ar      1 <0>         0.1808
      8 C7         -2.3973    0.2787    0.1225 C.ar      1 <0>        -0.2926
      9 O2         -4.7672    0.1842    0.0387 O.3       1 <0>        -0.3040
     10 C8         -4.7387    1.6129    0.0296 C.3       1 <0>         0.0197
     11 C9         -4.8321   -2.5990    0.0249 C.3       1 <0>         0.1976
     12 C10        -5.8971   -1.9212    0.8688 C.3       1 <0>         0.1163
     13 C11        -7.2435   -1.9779    0.1354 C.3       1 <0>        -0.1268
     14 C12        -7.6503   -3.4410   -0.0542 C.3       1 <0>        -0.1307
     15 C13        -7.7790   -4.1232    1.3093 C.3       1 <0>        -0.1258
     16 C14        -6.4327   -4.0559    2.0399 C.3       1 <0>         0.1205
     17 N1         -6.0464   -2.6322    2.1509 N.am      1 <0>        -0.5916
     18 C15        -5.8451   -2.0289    3.3392 C.2       1 <0>         0.5068
     19 O3         -5.4406   -0.8853    3.3783 O.2       1 <0>        -0.4944
     20 C16        -6.1196   -2.7674    4.6074 C.2       1 <0>         0.3976
     21 O4         -7.2450   -2.7996    5.0591 O.2       1 <0>        -0.3974
     22 C17        -5.0205   -3.4593    5.3123 C.ar      1 <0>        -0.1256
     23 C18        -3.6960   -3.3437    4.8709 C.ar      1 <0>        -0.1177
     24 C19        -2.7007   -4.0075    5.5608 C.ar      1 <0>         0.1000
     25 N2         -2.9835   -4.7410    6.6190 N.ar      1 <0>        -0.4551
     26 C20        -4.2151   -4.8772    7.0686 C.ar      1 <0>         0.0981
     27 C21        -5.2725   -4.2448    6.4446 C.ar      1 <0>        -0.1080
     28 C22        -5.3790   -4.7182    1.1845 C.2       1 <0>         0.5233
     29 O5         -5.2110   -5.9165    1.2659 O.2       1 <0>        -0.5269
     30 N3         -4.6266   -4.0028    0.3362 N.am      1 <0>        -0.5931
     31 C23        -3.4801   -4.6677   -0.3195 C.3       1 <0>         0.1034
     32 C24        -2.2037   -4.0028    0.1928 C.3       1 <0>        -0.0981
     33 H1          0.8607    2.2017    0.1980 H         1 <0>         0.1041
     34 H2         -0.6498    2.0703   -0.7343 H         1 <0>         0.0565
     35 H3         -0.7007    2.0865    1.0448 H         1 <0>         0.0568
     36 H4         -0.1909   -2.2732    0.2216 H         1 <0>         0.1349
     37 H5         -2.4326    1.3581    0.1172 H         1 <0>         0.1389
     38 H6         -5.7583    1.9964   -0.0071 H         1 <0>         0.1049
     39 H7         -4.2477    1.9723    0.9340 H         1 <0>         0.0593
     40 H8         -4.1883    1.9598   -0.8450 H         1 <0>         0.0583
     41 H9         -5.1741   -2.5473   -1.0088 H         1 <0>         0.0894
     42 H10        -5.6131   -0.8854    1.0549 H         1 <0>         0.1598
     43 H11        -8.0016   -1.4625    0.7251 H         1 <0>         0.0789
     44 H12        -7.1486   -1.4971   -0.8382 H         1 <0>         0.0876
     45 H13        -8.6072   -3.4867   -0.5741 H         1 <0>         0.0805
     46 H14        -6.8924   -3.9542   -0.6461 H         1 <0>         0.0686
     47 H15        -8.5396   -3.6135    1.9007 H         1 <0>         0.0877
     48 H16        -8.0649   -5.1656    1.1689 H         1 <0>         0.0910
     49 H17        -6.5002   -4.5196    3.0240 H         1 <0>         0.1230
     50 H18        -3.4570   -2.7451    4.0043 H         1 <0>         0.1399
     51 H19        -1.6764   -3.9248    5.2285 H         1 <0>         0.1663
     52 H20        -4.3994   -5.4886    7.9396 H         1 <0>         0.1693
     53 H21        -6.2784   -4.3575    6.8211 H         1 <0>         0.1512
     54 H22        -3.4725   -5.7275   -0.0650 H         1 <0>         0.1090
     55 H23        -3.5516   -4.5469   -1.4005 H         1 <0>         0.0821
     56 H24        -1.3643   -4.3145   -0.4288 H         1 <0>         0.0974
     57 H25        -2.0234   -4.3197    1.2200 H         1 <0>         0.0873
@<TRIPOS>BOND
     1    1    2 1
     2    1   33 1
     3    1   34 1
     4    1   35 1
     5    2    3 1
     6    3    8 ar
     7    3    4 ar
     8    4    5 ar
     9    4   36 1
    10    5   32 1
    11    5    6 ar
    12    6    7 ar
    13    6   11 1
    14    7    8 ar
    15    7    9 1
    16    8   37 1
    17    9   10 1
    18   10   38 1
    19   10   39 1
    20   10   40 1
    21   11   30 1
    22   11   12 1
    23   11   41 1
    24   12   17 1
    25   12   13 1
    26   12   42 1
    27   13   14 1
    28   13   43 1
    29   13   44 1
    30   14   15 1
    31   14   45 1
    32   14   46 1
    33   15   16 1
    34   15   47 1
    35   15   48 1
    36   16   17 1
    37   16   28 1
    38   16   49 1
    39   17   18 am
    40   18   19 2
    41   18   20 1
    42   20   21 2
    43   20   22 1
    44   22   27 ar
    45   22   23 ar
    46   23   24 ar
    47   23   50 1
    48   24   25 ar
    49   24   51 1
    50   25   26 ar
    51   26   27 ar
    52   26   52 1
    53   27   53 1
    54   28   29 2
    55   28   30 am
    56   30   31 1
    57   31   32 1
    58   31   54 1
    59   31   55 1
    60   32   56 1
    61   32   57 1
@<TRIPOS>MOLECULE
CHEMBL381509__2
   57    61     0     0     0
SMALL
USER_CHARGES

@<TRIPOS>ATOM
      1 C1          0.0676    0.9652    0.2977 C.3       1 <0>         0.0253
      2 O1         -0.0279   -0.4606    0.2949 O.3       1 <0>        -0.3110
      3 C2         -1.2762   -0.9952    0.2428 C.ar      1 <0>         0.1758
      4 C3         -1.4436   -2.3701    0.2427 C.ar      1 <0>        -0.1882
      5 C4         -2.7137   -2.9286    0.1926 C.ar      1 <0>         0.0085
      6 C5         -3.8176   -2.1042    0.1497 C.ar      1 <0>        -0.1701
      7 C6         -3.6531   -0.7216    0.1423 C.ar      1 <0>         0.1797
      8 C7         -2.3862   -0.1663    0.1954 C.ar      1 <0>        -0.2930
      9 O2         -4.7433    0.0878    0.0880 O.3       1 <0>        -0.3039
     10 C8         -4.5057    1.4969    0.0834 C.3       1 <0>         0.0200
     11 C9         -5.2180   -2.6550    0.1265 C.3       1 <0>         0.1973
     12 C10        -6.1032   -1.8519   -0.8102 C.3       1 <0>         0.1172
     13 C11        -7.4941   -1.6877   -0.1838 C.3       1 <0>        -0.1263
     14 C12        -8.1285   -3.0682   -0.0008 C.3       1 <0>        -0.1308
     15 C13        -8.2553   -3.7635   -1.3578 C.3       1 <0>        -0.1246
     16 C14        -6.8633   -3.9170   -1.9818 C.3       1 <0>         0.1199
     17 N1         -6.2610   -2.5698   -2.0874 N.am      1 <0>        -0.5925
     18 C15        -5.8843   -2.0373   -3.2668 C.2       1 <0>         0.5070
     19 O3         -5.4807   -0.8937   -3.3150 O.2       1 <0>        -0.4940
     20 C16        -5.9634   -2.8542   -4.5140 C.2       1 <0>         0.3973
     21 O4         -7.0075   -2.9251   -5.1273 O.2       1 <0>        -0.3986
     22 C17        -4.7697   -3.5763   -5.0012 C.ar      1 <0>        -0.1232
     23 C18        -3.5858   -3.5987   -4.2526 C.ar      1 <0>        -0.1173
     24 C19        -2.4950   -4.2867   -4.7467 C.ar      1 <0>         0.1002
     25 N2         -2.5577   -4.9150   -5.9039 N.ar      1 <0>        -0.4549
     26 C20        -3.6510   -4.9199   -6.6405 C.ar      1 <0>         0.0981
     27 C21        -4.7915   -4.2630   -6.2221 C.ar      1 <0>        -0.1074
     28 C22        -5.9870   -4.7027   -1.0359 C.2       1 <0>         0.5224
     29 O5         -5.9954   -5.9146   -1.0820 O.2       1 <0>        -0.5264
     30 N3         -5.1996   -4.0816   -0.1458 N.am      1 <0>        -0.5937
     31 C23        -4.2135   -4.8887    0.6044 C.3       1 <0>         0.1033
     32 C24        -2.8195   -4.4307    0.1790 C.3       1 <0>        -0.0984
     33 H1          1.1163    1.2591    0.3416 H         1 <0>         0.1043
     34 H2         -0.3830    1.3613   -0.6123 H         1 <0>         0.0568
     35 H3         -0.4578    1.3628    1.1660 H         1 <0>         0.0567
     36 H4         -0.5775   -3.0141    0.2816 H         1 <0>         0.1352
     37 H5         -2.2632    0.9066    0.1959 H         1 <0>         0.1390
     38 H6         -5.4576    2.0258    0.0379 H         1 <0>         0.1053
     39 H7         -3.9764    1.7791    0.9935 H         1 <0>         0.0583
     40 H8         -3.9016    1.7606   -0.7848 H         1 <0>         0.0592
     41 H9         -5.6269   -2.5260    1.1287 H         1 <0>         0.0900
     42 H10        -5.6541   -0.8753   -0.9915 H         1 <0>         0.1589
     43 H11        -7.4016   -1.1978    0.7855 H         1 <0>         0.0872
     44 H12        -8.1202   -1.0832   -0.8402 H         1 <0>         0.0790
     45 H13        -7.5026   -3.6703    0.6579 H         1 <0>         0.0685
     46 H14        -9.1178   -2.9566    0.4431 H         1 <0>         0.0804
     47 H15        -8.7034   -4.7477   -1.2217 H         1 <0>         0.0912
     48 H16        -8.8849   -3.1646   -2.0159 H         1 <0>         0.0877
     49 H17        -6.9258   -4.3938   -2.9600 H         1 <0>         0.1241
     50 H18        -3.5269   -3.0857   -3.3041 H         1 <0>         0.1380
     51 H19        -1.5776   -4.3100   -4.1773 H         1 <0>         0.1658
     52 H20        -3.6561   -5.4484   -7.5823 H         1 <0>         0.1694
     53 H21        -5.6849   -4.2748   -6.8288 H         1 <0>         0.1514
     54 H22        -4.3439   -4.7301    1.6748 H         1 <0>         0.0821
     55 H23        -4.3437   -5.9447    0.3678 H         1 <0>         0.1090
     56 H24        -2.6155   -4.7943   -0.8281 H         1 <0>         0.0874
     57 H25        -2.0816   -4.8472    0.8648 H         1 <0>         0.0978
@<TRIPOS>BOND
     1    1    2 1
     2    1   33 1
     3    1   34 1
     4    1   35 1
     5    2    3 1
     6    3    8 ar
     7    3    4 ar
     8    4    5 ar
     9    4   36 1
    10    5   32 1
    11    5    6 ar
    12    6    7 ar
    13    6   11 1
    14    7    8 ar
    15    7    9 1
    16    8   37 1
    17    9   10 1
    18   10   38 1
    19   10   39 1
    20   10   40 1
    21   11   30 1
    22   11   12 1
    23   11   41 1
    24   12   17 1
    25   12   13 1
    26   12   42 1
    27   13   14 1
    28   13   43 1
    29   13   44 1
    30   14   15 1
    31   14   45 1
    32   14   46 1
    33   15   16 1
    34   15   47 1
    35   15   48 1
    36   16   17 1
    37   16   28 1
    38   16   49 1
    39   17   18 am
    40   18   19 2
    41   18   20 1
    42   20   21 2
    43   20   22 1
    44   22   27 ar
    45   22   23 ar
    46   23   24 ar
    47   23   50 1
    48   24   25 ar
    49   24   51 1
    50   25   26 ar
    51   26   27 ar
    52   26   52 1
    53   27   53 1
    54   28   29 2
    55   28   30 am
    56   30   31 1
    57   31   32 1
    58   31   54 1
    59   31   55 1
    60   32   56 1
    61   32   57 1
@<TRIPOS>MOLECULE
CHEMBL381509__3
   57    61     0     0     0
SMALL
USER_CHARGES

@<TRIPOS>ATOM
      1 C1          0.0475    1.2729    0.1367 C.3       1 <0>         0.0250
      2 O1          0.0339   -0.1532    0.2269 O.3       1 <0>        -0.3096
      3 C2         -1.1808   -0.7597    0.2202 C.ar      1 <0>         0.1800
      4 C3         -1.2756   -2.1398    0.3348 C.ar      1 <0>        -0.1789
      5 C4         -2.5104   -2.7477    0.2936 C.ar      1 <0>         0.0019
      6 C5         -3.6723   -2.0058    0.1129 C.ar      1 <0>        -0.1643
      7 C6         -3.5813   -0.6268    0.0913 C.ar      1 <0>         0.1908
      8 C7         -2.3373   -0.0049    0.1292 C.ar      1 <0>        -0.3051
      9 O2         -4.6845    0.1680    0.0903 O.3       1 <0>        -0.3095
     10 C8         -4.4667    1.5801    0.0669 C.3       1 <0>         0.0234
     11 C9         -4.9608   -2.7548   -0.0697 C.3       1 <0>         0.2037
     12 C10        -6.0260   -1.9157   -0.7570 C.3       1 <0>         0.1421
     13 C11        -5.5543   -1.3204   -2.0737 C.3       1 <0>        -0.1188
     14 C12        -5.3962   -2.3747   -3.1673 C.3       1 <0>        -0.1302
     15 C13        -6.6948   -3.1718   -3.3253 C.3       1 <0>        -0.1258
     16 C14        -6.9693   -3.8674   -1.9751 C.3       1 <0>         0.1245
     17 N1         -7.2010   -2.7814   -0.9997 N.am      1 <0>        -0.6002
     18 C15        -8.3823   -2.5885   -0.3827 C.2       1 <0>         0.5077
     19 O3         -8.4874   -1.7350    0.4736 O.2       1 <0>        -0.4945
     20 C16        -9.5628   -3.4248   -0.7520 C.2       1 <0>         0.3985
     21 O4        -10.2581   -3.1097   -1.6947 O.2       1 <0>        -0.3957
     22 C17        -9.8841   -4.6362    0.0309 C.ar      1 <0>        -0.1255
     23 C18        -9.1635   -4.9582    1.1883 C.ar      1 <0>        -0.1192
     24 C19        -9.4988   -6.1001    1.8889 C.ar      1 <0>         0.0999
     25 N2        -10.4799   -6.8809    1.4820 N.ar      1 <0>        -0.4559
     26 C20       -11.1836   -6.6159    0.3993 C.ar      1 <0>         0.0984
     27 C21       -10.9219   -5.4923   -0.3598 C.ar      1 <0>        -0.1081
     28 C22        -5.6908   -4.5620   -1.5815 C.2       1 <0>         0.5153
     29 O5         -5.4784   -5.6687   -2.0346 O.2       1 <0>        -0.5290
     30 N3         -4.7675   -4.0281   -0.7577 N.am      1 <0>        -0.5941
     31 C23        -3.5401   -4.8191   -0.5906 C.3       1 <0>         0.1181
     32 C24        -2.6319   -4.2373    0.4818 C.3       1 <0>        -0.0932
     33 H1          1.0778    1.6282    0.1524 H         1 <0>         0.1048
     34 H2         -0.4295    1.5827   -0.7932 H         1 <0>         0.0571
     35 H3         -0.4956    1.6956    0.9820 H         1 <0>         0.0573
     36 H4         -0.3839   -2.7377    0.4540 H         1 <0>         0.1382
     37 H5         -2.2778    1.0729    0.0881 H         1 <0>         0.1404
     38 H6         -5.4269    2.0960    0.0687 H         1 <0>         0.1058
     39 H7         -3.8947    1.8741    0.9470 H         1 <0>         0.0584
     40 H8         -3.9123    1.8474   -0.8327 H         1 <0>         0.0574
     41 H9         -5.3415   -2.9936    0.9364 H         1 <0>         0.0801
     42 H10        -6.3499   -1.1184   -0.0842 H         1 <0>         0.1355
     43 H11        -6.2771   -0.5708   -2.4096 H         1 <0>         0.0744
     44 H12        -4.5905   -0.8254   -1.9371 H         1 <0>         0.0838
     45 H13        -5.1675   -1.8777   -4.1141 H         1 <0>         0.0764
     46 H14        -4.5768   -3.0462   -2.9174 H         1 <0>         0.0696
     47 H15        -7.5172   -2.4997   -3.5684 H         1 <0>         0.0893
     48 H16        -6.5798   -3.9208   -4.1092 H         1 <0>         0.0910
     49 H17        -7.8092   -4.5554   -2.0338 H         1 <0>         0.1285
     50 H18        -8.3580   -4.3236    1.5271 H         1 <0>         0.1414
     51 H19        -8.9493   -6.3572    2.7824 H         1 <0>         0.1671
     52 H20       -11.9787   -7.2846    0.1041 H         1 <0>         0.1692
     53 H21       -11.5054   -5.2792   -1.2433 H         1 <0>         0.1514
     54 H22        -3.8118   -5.8387   -0.3102 H         1 <0>         0.0857
     55 H23        -3.0026   -4.8498   -1.5388 H         1 <0>         0.0727
     56 H24        -1.6438   -4.6922    0.4099 H         1 <0>         0.1002
     57 H25        -3.0504   -4.4430    1.4684 H         1 <0>         0.0927
@<TRIPOS>BOND
     1    1    2 1
     2    1   33 1
     3    1   34 1
     4    1   35 1
     5    2    3 1
     6    3    8 ar
     7    3    4 ar
     8    4    5 ar
     9    4   36 1
    10    5   32 1
    11    5    6 ar
    12    6    7 ar
    13    6   11 1
    14    7    8 ar
    15    7    9 1
    16    8   37 1
    17    9   10 1
    18   10   38 1
    19   10   39 1
    20   10   40 1
    21   11   30 1
    22   11   12 1
    23   11   41 1
    24   12   17 1
    25   12   13 1
    26   12   42 1
    27   13   14 1
    28   13   43 1
    29   13   44 1
    30   14   15 1
    31   14   45 1
    32   14   46 1
    33   15   16 1
    34   15   47 1
    35   15   48 1
    36   16   17 1
    37   16   28 1
    38   16   49 1
    39   17   18 am
    40   18   19 2
    41   18   20 1
    42   20   21 2
    43   20   22 1
    44   22   27 ar
    45   22   23 ar
    46   23   24 ar
    47   23   50 1
    48   24   25 ar
    49   24   51 1
    50   25   26 ar
    51   26   27 ar
    52   26   52 1
    53   27   53 1
    54   28   29 2
    55   28   30 am
    56   30   31 1
    57   31   32 1
    58   31   54 1
    59   31   55 1
    60   32   56 1
    61   32   57 1
@<TRIPOS>MOLECULE
CHEMBL372288
   57    61     0     0     0
SMALL
USER_CHARGES

@<TRIPOS>ATOM
      1 C1          0.2050    1.5651   -0.0655 C.3       1 <0>         0.0251
      2 O1          0.2977    0.1415   -0.1488 O.3       1 <0>        -0.3098
      3 C2          0.8885   -0.4997    0.8922 C.ar      1 <0>         0.1797
      4 C3          0.9838   -1.8850    0.8971 C.ar      1 <0>        -0.1786
      5 C4          1.6253   -2.5221    1.9339 C.ar      1 <0>         0.0023
      6 C5          2.2063   -1.8001    2.9708 C.ar      1 <0>        -0.1659
      7 C6          2.0058   -0.4345    3.0236 C.ar      1 <0>         0.1915
      8 C7          1.3700    0.2195    1.9721 C.ar      1 <0>        -0.3051
      9 O2          2.3547    0.3013    4.1131 O.3       1 <0>        -0.3091
     10 C8          2.1004    1.7063    4.0556 C.3       1 <0>         0.0236
     11 C9          3.0546   -2.5549    3.9560 C.3       1 <0>         0.2036
     12 C10         4.0267   -1.6477    4.6912 C.3       1 <0>         0.1421
     13 C11         4.8576   -0.7768    3.7602 C.3       1 <0>        -0.1194
     14 C12         5.8597   -1.5981    2.9528 C.3       1 <0>        -0.1308
     15 C13         6.7506   -2.4110    3.8987 C.3       1 <0>        -0.1242
     16 C14         5.8314   -3.3586    4.6968 C.3       1 <0>         0.1251
     17 N1          4.9354   -2.4965    5.4934 N.am      1 <0>        -0.6012
     18 C15         4.9393   -2.4809    6.8410 C.2       1 <0>         0.5057
     19 O3          4.2446   -1.6867    7.4407 O.2       1 <0>        -0.4935
     20 C16         5.7982   -3.4406    7.5962 C.2       1 <0>         0.4035
     21 O4          6.9638   -3.1760    7.8062 O.2       1 <0>        -0.4055
     22 C17         5.2305   -4.7093    8.0866 C.ar      1 <0>        -0.2267
     23 C18         5.9935   -5.5693    8.8915 C.ar      1 <0>        -0.0066
     24 C19         5.4132   -6.7470    9.3247 C.ar      1 <0>        -0.1811
     25 C20         4.1113   -7.0379    8.9547 C.ar      1 <0>         0.1396
     26 N2          3.4161   -6.2111    8.1966 N.ar      1 <0>        -0.4856
     27 C21         3.9198   -5.0749    7.7627 C.ar      1 <0>         0.1623
     28 C22         4.9770   -4.0814    3.6891 C.2       1 <0>         0.5140
     29 O5          5.4260   -5.0802    3.1666 O.2       1 <0>        -0.5286
     30 N3          3.7398   -3.6826    3.3318 N.am      1 <0>        -0.5944
     31 C23         3.1112   -4.4732    2.2638 C.3       1 <0>         0.1189
     32 C24         1.6819   -4.0262    1.9959 C.3       1 <0>        -0.0934
     33 H1          1.2056    1.9905    0.0107 H         1 <0>         0.0569
     34 H2         -0.2865    1.9500   -0.9590 H         1 <0>         0.1046
     35 H3         -0.3750    1.8405    0.8154 H         1 <0>         0.0572
     36 H4          0.5567   -2.4625    0.0896 H         1 <0>         0.1381
     37 H5          1.2594    1.2938    1.9999 H         1 <0>         0.1401
     38 H6          2.6495    2.1411    3.2204 H         1 <0>         0.0570
     39 H7          1.0328    1.8769    3.9166 H         1 <0>         0.0583
     40 H8          2.4247    2.1727    4.9858 H         1 <0>         0.1059
     41 H9          2.3731   -2.9750    4.7111 H         1 <0>         0.0801
     42 H10         3.4721   -1.0158    5.3901 H         1 <0>         0.1352
     43 H11         4.2149   -0.2366    3.0669 H         1 <0>         0.0842
     44 H12         5.4078   -0.0435    4.3593 H         1 <0>         0.0740
     45 H13         5.3274   -2.2647    2.2774 H         1 <0>         0.0699
     46 H14         6.4836   -0.9210    2.3650 H         1 <0>         0.0758
     47 H15         7.4669   -2.9931    3.3186 H         1 <0>         0.0905
     48 H16         7.2767   -1.7426    4.5784 H         1 <0>         0.0893
     49 H17         6.4003   -4.0471    5.3190 H         1 <0>         0.1292
     50 H18         7.0075   -5.3178    9.1650 H         1 <0>         0.1508
     51 H19         5.9702   -7.4333    9.9453 H         1 <0>         0.1496
     52 H20         3.6567   -7.9577    9.2921 H         1 <0>         0.1678
     53 H21         3.3179   -4.4221    7.1480 H         1 <0>         0.1575
     54 H22         3.6964   -4.3668    1.3498 H         1 <0>         0.0736
     55 H23         3.1055   -5.5247    2.5571 H         1 <0>         0.0841
     56 H24         1.0319   -4.3777    2.7985 H         1 <0>         0.0929
     57 H25         1.3379   -4.4417    1.0482 H         1 <0>         0.0999
@<TRIPOS>BOND
     1    1    2 1
     2    1   33 1
     3    1   34 1
     4    1   35 1
     5    2    3 1
     6    3    8 ar
     7    3    4 ar
     8    4    5 ar
     9    4   36 1
    10    5   32 1
    11    5    6 ar
    12    6    7 ar
    13    6   11 1
    14    7    8 ar
    15    7    9 1
    16    8   37 1
    17    9   10 1
    18   10   38 1
    19   10   39 1
    20   10   40 1
    21   11   30 1
    22   11   12 1
    23   11   41 1
    24   12   17 1
    25   12   13 1
    26   12   42 1
    27   13   14 1
    28   13   43 1
    29   13   44 1
    30   14   15 1
    31   14   45 1
    32   14   46 1
    33   15   16 1
    34   15   47 1
    35   15   48 1
    36   16   17 1
    37   16   28 1
    38   16   49 1
    39   17   18 am
    40   18   19 2
    41   18   20 1
    42   20   21 2
    43   20   22 1
    44   22   27 ar
    45   22   23 ar
    46   23   24 ar
    47   23   50 1
    48   24   25 ar
    49   24   51 1
    50   25   26 ar
    51   25   52 1
    52   26   27 ar
    53   27   53 1
    54   28   29 2
    55   28   30 am
    56   30   31 1
    57   31   32 1
    58   31   54 1
    59   31   55 1
    60   32   56 1
    61   32   57 1
@<TRIPOS>MOLECULE
CHEMBL372288__1
   57    61     0     0     0
SMALL
USER_CHARGES

@<TRIPOS>ATOM
      1 C1          0.1531    1.7244    0.0239 C.3       1 <0>         0.0256
      2 O1          0.1490    0.2983   -0.0675 O.3       1 <0>        -0.3114
      3 C2          0.7277   -0.3870    0.9534 C.ar      1 <0>         0.1753
      4 C3          0.7646   -1.7713    0.9277 C.ar      1 <0>        -0.1871
      5 C4          1.3495   -2.4830    1.9663 C.ar      1 <0>         0.0098
      6 C5          1.8915   -1.8027    3.0357 C.ar      1 <0>        -0.1692
      7 C6          1.8638   -0.4109    3.0610 C.ar      1 <0>         0.1805
      8 C7          1.2878    0.2976    2.0206 C.ar      1 <0>        -0.2927
      9 O2          2.4102    0.2563    4.1112 O.3       1 <0>        -0.3040
     10 C8          2.3487    1.6835    4.0759 C.3       1 <0>         0.0199
     11 C9          2.5074   -2.5244    4.2040 C.3       1 <0>         0.1977
     12 C10         3.7535   -1.8069    4.6920 C.3       1 <0>         0.1162
     13 C11         3.7988   -1.8461    6.2251 C.3       1 <0>        -0.1265
     14 C12         3.8799   -3.3026    6.6876 C.3       1 <0>        -0.1307
     15 C13         5.1411   -3.9565    6.1197 C.3       1 <0>        -0.1254
     16 C14         5.0932   -3.9068    4.5880 C.3       1 <0>         0.1208
     17 N1          4.9556   -2.4906    4.1831 N.am      1 <0>        -0.5919
     18 C15         5.8642   -1.8704    3.4045 C.2       1 <0>         0.5048
     19 O3          5.6633   -0.7358    3.0234 O.2       1 <0>        -0.4949
     20 C16         7.1180   -2.5791    3.0109 C.2       1 <0>         0.4030
     21 O4          8.0726   -2.5847    3.7601 O.2       1 <0>        -0.4058
     22 C17         7.1962   -3.2720    1.7123 C.ar      1 <0>        -0.2295
     23 C18         8.3255   -4.0347    1.3767 C.ar      1 <0>        -0.0074
     24 C19         8.3482   -4.6642    0.1460 C.ar      1 <0>        -0.1815
     25 C20         7.2674   -4.5238   -0.7077 C.ar      1 <0>         0.1395
     26 N2          6.2177   -3.8002   -0.3668 N.ar      1 <0>        -0.4848
     27 C21         6.1439   -3.1857    0.7949 C.ar      1 <0>         0.1634
     28 C22         3.8424   -4.6088    4.1154 C.2       1 <0>         0.5230
     29 O5          3.8611   -5.8090    3.9420 O.2       1 <0>        -0.5281
     30 N3          2.7115   -3.9267    3.8847 N.am      1 <0>        -0.5929
     31 C23         1.5866   -4.6298    3.2314 C.3       1 <0>         0.1039
     32 C24         1.3688   -3.9852    1.8636 C.3       1 <0>        -0.0987
     33 H1          1.1815    2.0824    0.0711 H         1 <0>         0.0567
     34 H2         -0.3386    2.1460   -0.8528 H         1 <0>         0.1037
     35 H3         -0.3805    2.0324    0.9230 H         1 <0>         0.0563
     36 H4          0.3338   -2.3022    0.0917 H         1 <0>         0.1347
     37 H5          1.2714    1.3773    2.0422 H         1 <0>         0.1387
     38 H6          2.8731    2.0480    3.1926 H         1 <0>         0.0592
     39 H7          1.3069    2.0015    4.0370 H         1 <0>         0.0580
     40 H8          2.8194    2.0897    4.9713 H         1 <0>         0.1046
     41 H9          1.7851   -2.4840    5.0193 H         1 <0>         0.0893
     42 H10         3.7430   -0.7747    4.3419 H         1 <0>         0.1599
     43 H11         4.6754   -1.3025    6.5777 H         1 <0>         0.0788
     44 H12         2.8968   -1.3855    6.6281 H         1 <0>         0.0874
     45 H13         3.9133   -3.3358    7.7766 H         1 <0>         0.0801
     46 H14         3.0014   -3.8439    6.3362 H         1 <0>         0.0685
     47 H15         6.0206   -3.4186    6.4737 H         1 <0>         0.0878
     48 H16         5.1923   -4.9944    6.4485 H         1 <0>         0.0905
     49 H17         5.9900   -4.3507    4.1558 H         1 <0>         0.1234
     50 H18         9.1552   -4.1272    2.0618 H         1 <0>         0.1505
     51 H19         9.2006   -5.2592   -0.1466 H         1 <0>         0.1494
     52 H20         7.2838   -5.0146   -1.6696 H         1 <0>         0.1675
     53 H21         5.2659   -2.6064    1.0397 H         1 <0>         0.1581
     54 H22         1.8318   -5.6847    3.1080 H         1 <0>         0.1085
     55 H23         0.6855   -4.5272    3.8360 H         1 <0>         0.0819
     56 H24         0.4182   -4.3276    1.4546 H         1 <0>         0.0970
     57 H25         2.1742   -4.2872    1.1940 H         1 <0>         0.0884
@<TRIPOS>BOND
     1    1    2 1
     2    1   33 1
     3    1   34 1
     4    1   35 1
     5    2    3 1
     6    3    8 ar
     7    3    4 ar
     8    4    5 ar
     9    4   36 1
    10    5   32 1
    11    5    6 ar
    12    6    7 ar
    13    6   11 1
    14    7    8 ar
    15    7    9 1
    16    8   37 1
    17    9   10 1
    18   10   38 1
    19   10   39 1
    20   10   40 1
    21   11   30 1
    22   11   12 1
    23   11   41 1
    24   12   17 1
    25   12   13 1
    26   12   42 1
    27   13   14 1
    28   13   43 1
    29   13   44 1
    30   14   15 1
    31   14   45 1
    32   14   46 1
    33   15   16 1
    34   15   47 1
    35   15   48 1
    36   16   17 1
    37   16   28 1
    38   16   49 1
    39   17   18 am
    40   18   19 2
    41   18   20 1
    42   20   21 2
    43   20   22 1
    44   22   27 ar
    45   22   23 ar
    46   23   24 ar
    47   23   50 1
    48   24   25 ar
    49   24   51 1
    50   25   26 ar
    51   25   52 1
    52   26   27 ar
    53   27   53 1
    54   28   29 2
    55   28   30 am
    56   30   31 1
    57   31   32 1
    58   31   54 1
    59   31   55 1
    60   32   56 1
    61   32   57 1
@<TRIPOS>MOLECULE
CHEMBL372288__2
   57    61     0     0     0
SMALL
USER_CHARGES

@<TRIPOS>ATOM
      1 C1          0.1734    1.0310   -0.1796 C.3       1 <0>         0.0255
      2 O1          0.2476   -0.3940   -0.1035 O.3       1 <0>        -0.3110
      3 C2          0.8439   -0.9228    0.9972 C.ar      1 <0>         0.1757
      4 C3          0.9558   -2.2965    1.1343 C.ar      1 <0>        -0.1860
      5 C4          1.5653   -2.8490    2.2527 C.ar      1 <0>         0.0105
      6 C5          2.0694   -2.0197    3.2316 C.ar      1 <0>        -0.1710
      7 C6          1.9523   -0.6384    3.1008 C.ar      1 <0>         0.1790
      8 C7          1.3472   -0.0891    1.9836 C.ar      1 <0>        -0.2932
      9 O2          2.4400    0.1756    4.0736 O.3       1 <0>        -0.3040
     10 C8          2.2878    1.5830    3.8784 C.3       1 <0>         0.0202
     11 C9          2.7677   -2.5633    4.4488 C.3       1 <0>         0.1975
     12 C10         2.3906   -1.7742    5.6903 C.3       1 <0>         0.1169
     13 C11         3.6303   -1.5900    6.5753 C.3       1 <0>        -0.1260
     14 C12         4.1363   -2.9632    7.0228 C.3       1 <0>        -0.1307
     15 C13         3.0433   -3.6847    7.8139 C.3       1 <0>        -0.1243
     16 C14         1.8048   -3.8582    6.9269 C.3       1 <0>         0.1201
     17 N1          1.3826   -2.5166    6.4678 N.am      1 <0>        -0.5931
     18 C15         0.1641   -2.0098    6.7412 C.2       1 <0>         0.5052
     19 O3         -0.1045   -0.8700    6.4226 O.2       1 <0>        -0.4944
     20 C16        -0.8553   -2.8506    7.4361 C.2       1 <0>         0.4024
     21 O4         -0.8625   -2.9179    8.6478 O.2       1 <0>        -0.4069
     22 C17        -1.8530   -3.5990    6.6505 C.ar      1 <0>        -0.2274
     23 C18        -2.8841   -4.3034    7.2909 C.ar      1 <0>        -0.0069
     24 C19        -3.7936   -4.9889    6.5073 C.ar      1 <0>        -0.1813
     25 C20        -3.6601   -4.9591    5.1296 C.ar      1 <0>         0.1393
     26 N2         -2.6806   -4.2884    4.5531 N.ar      1 <0>        -0.4838
     27 C21        -1.7923   -3.6148    5.2531 C.ar      1 <0>         0.1635
     28 C22         2.1940   -4.6296    5.6886 C.2       1 <0>         0.5221
     29 O5          2.1827   -5.8421    5.7125 O.2       1 <0>        -0.5275
     30 N3          2.5519   -3.9951    4.5629 N.am      1 <0>        -0.5934
     31 C23         2.7172   -4.7924    3.3285 C.3       1 <0>         0.1038
     32 C24         1.6370   -4.3505    2.3427 C.3       1 <0>        -0.0990
     33 H1          1.1800    1.4487   -0.1627 H         1 <0>         0.0564
     34 H2         -0.3243    1.3200   -1.1053 H         1 <0>         0.1038
     35 H3         -0.3922    1.4113    0.6710 H         1 <0>         0.0566
     36 H4          0.5647   -2.9443    0.3637 H         1 <0>         0.1349
     37 H5          1.2640    0.9830    1.8830 H         1 <0>         0.1387
     38 H6          2.8001    1.8805    2.9634 H         1 <0>         0.0580
     39 H7          1.2284    1.8261    3.7971 H         1 <0>         0.0590
     40 H8          2.7189    2.1160    4.7259 H         1 <0>         0.1049
     41 H9          3.8364   -2.4121    4.2963 H         1 <0>         0.0899
     42 H10         1.9878   -0.8040    5.3997 H         1 <0>         0.1590
     43 H11         4.4102   -1.0815    6.0085 H         1 <0>         0.0869
     44 H12         3.3682   -0.9954    7.4504 H         1 <0>         0.0790
     45 H13         4.4004   -3.5554    6.1467 H         1 <0>         0.0685
     46 H14         5.0167   -2.8374    7.6530 H         1 <0>         0.0800
     47 H15         3.4067   -4.6637    8.1266 H         1 <0>         0.0907
     48 H16         2.7815   -3.0957    8.6929 H         1 <0>         0.0876
     49 H17         1.0019   -4.3541    7.4724 H         1 <0>         0.1244
     50 H18        -2.9647   -4.3102    8.3679 H         1 <0>         0.1506
     51 H19        -4.6001   -5.5424    6.9652 H         1 <0>         0.1495
     52 H20        -4.3696   -5.4944    4.5161 H         1 <0>         0.1676
     53 H21        -1.0077   -3.0742    4.7448 H         1 <0>         0.1559
     54 H22         3.7036   -4.6118    2.9012 H         1 <0>         0.0818
     55 H23         2.6000   -5.8522    3.5546 H         1 <0>         0.1084
     56 H24         0.6722   -4.7353    2.6734 H         1 <0>         0.0893
     57 H25         1.8642   -4.7572    1.3573 H         1 <0>         0.0971
@<TRIPOS>BOND
     1    1    2 1
     2    1   33 1
     3    1   34 1
     4    1   35 1
     5    2    3 1
     6    3    8 ar
     7    3    4 ar
     8    4    5 ar
     9    4   36 1
    10    5   32 1
    11    5    6 ar
    12    6    7 ar
    13    6   11 1
    14    7    8 ar
    15    7    9 1
    16    8   37 1
    17    9   10 1
    18   10   38 1
    19   10   39 1
    20   10   40 1
    21   11   30 1
    22   11   12 1
    23   11   41 1
    24   12   17 1
    25   12   13 1
    26   12   42 1
    27   13   14 1
    28   13   43 1
    29   13   44 1
    30   14   15 1
    31   14   45 1
    32   14   46 1
    33   15   16 1
    34   15   47 1
    35   15   48 1
    36   16   17 1
    37   16   28 1
    38   16   49 1
    39   17   18 am
    40   18   19 2
    41   18   20 1
    42   20   21 2
    43   20   22 1
    44   22   27 ar
    45   22   23 ar
    46   23   24 ar
    47   23   50 1
    48   24   25 ar
    49   24   51 1
    50   25   26 ar
    51   25   52 1
    52   26   27 ar
    53   27   53 1
    54   28   29 2
    55   28   30 am
    56   30   31 1
    57   31   32 1
    58   31   54 1
    59   31   55 1
    60   32   56 1
    61   32   57 1
@<TRIPOS>MOLECULE
CHEMBL372288__3
   57    61     0     0     0
SMALL
USER_CHARGES

@<TRIPOS>ATOM
      1 C1          0.0550    1.2883   -0.0976 C.3       1 <0>         0.0251
      2 O1          0.1656   -0.1362   -0.1241 O.3       1 <0>        -0.3097
      3 C2          0.7829   -0.7262    0.9315 C.ar      1 <0>         0.1796
      4 C3          0.9546   -2.1033    0.9627 C.ar      1 <0>        -0.1790
      5 C4          1.5523   -2.6948    2.0531 C.ar      1 <0>         0.0021
      6 C5          1.9681   -1.9397    3.1439 C.ar      1 <0>        -0.1635
      7 C6          1.8786   -0.5624    3.0691 C.ar      1 <0>         0.1907
      8 C7          1.2732    0.0430    1.9724 C.ar      1 <0>        -0.3051
      9 O2          2.4191    0.2473    4.0184 O.3       1 <0>        -0.3093
     10 C8          2.2635    1.6559    3.8348 C.3       1 <0>         0.0235
     11 C9          2.4733   -2.6733    4.3526 C.3       1 <0>         0.2028
     12 C10         2.4011   -1.8290    5.6148 C.3       1 <0>         0.1420
     13 C11         1.0156   -1.2574    5.8679 C.3       1 <0>        -0.1185
     14 C12         0.0106   -2.3280    6.2878 C.3       1 <0>        -0.1302
     15 C13         0.5429   -3.1094    7.4932 C.3       1 <0>        -0.1255
     16 C14         1.8598   -3.7835    7.0534 C.3       1 <0>         0.1249
     17 N1          2.7992   -2.6818    6.7563 N.am      1 <0>        -0.6005
     18 C15         3.9238   -2.4648    7.4647 C.2       1 <0>         0.5058
     19 O3          4.7007   -1.5986    7.1196 O.2       1 <0>        -0.4949
     20 C16         4.2149   -3.2897    8.6745 C.2       1 <0>         0.4040
     21 O4          3.7380   -2.9827    9.7474 O.2       1 <0>        -0.4042
     22 C17         5.0815   -4.4771    8.5659 C.ar      1 <0>        -0.2291
     23 C18         5.2738   -5.3241    9.6682 C.ar      1 <0>        -0.0073
     24 C19         6.0965   -6.4242    9.5128 C.ar      1 <0>        -0.1813
     25 C20         6.6986   -6.6532    8.2874 C.ar      1 <0>         0.1397
     26 N2          6.5005   -5.8402    7.2669 N.ar      1 <0>        -0.4859
     27 C21         5.7222   -4.7827    7.3607 C.ar      1 <0>         0.1620
     28 C22         1.5683   -4.4902    5.7544 C.2       1 <0>         0.5152
     29 O5          1.0900   -5.6055    5.8049 O.2       1 <0>        -0.5300
     30 N3          1.8048   -3.9581    4.5389 N.am      1 <0>        -0.5938
     31 C23         1.3450   -4.7634    3.3987 C.3       1 <0>         0.1183
     32 C24         1.8031   -4.1800    2.0708 C.3       1 <0>        -0.0934
     33 H1          1.0509    1.7294   -0.0568 H         1 <0>         0.0572
     34 H2         -0.4570    1.6297   -0.9973 H         1 <0>         0.1046
     35 H3         -0.5134    1.5923    0.7814 H         1 <0>         0.0570
     36 H4          0.6192   -2.7116    0.1355 H         1 <0>         0.1380
     37 H5          1.1882    1.1192    1.9361 H         1 <0>         0.1403
     38 H6          2.7301    1.9536    2.8957 H         1 <0>         0.0582
     39 H7          1.2024    1.9038    3.8080 H         1 <0>         0.0573
     40 H8          2.7395    2.1847    4.6606 H         1 <0>         0.1057
     41 H9          3.5383   -2.8938    4.1756 H         1 <0>         0.0808
     42 H10         3.1308   -1.0186    5.5513 H         1 <0>         0.1357
     43 H11         1.0760   -0.5025    6.6576 H         1 <0>         0.0743
     44 H12         0.6390   -0.7738    4.9640 H         1 <0>         0.0835
     45 H13        -0.9314   -1.8466    6.5650 H         1 <0>         0.0760
     46 H14        -0.1742   -3.0072    5.4577 H         1 <0>         0.0695
     47 H15         0.7351   -2.4294    8.3226 H         1 <0>         0.0894
     48 H16        -0.1784   -3.8701    7.7928 H         1 <0>         0.0905
     49 H17         2.2449   -4.4607    7.8118 H         1 <0>         0.1288
     50 H18         4.7919   -5.1217   10.6133 H         1 <0>         0.1506
     51 H19         6.2681   -7.0980   10.3393 H         1 <0>         0.1494
     52 H20         7.3419   -7.5120    8.1646 H         1 <0>         0.1676
     53 H21         5.5811   -4.1435    6.5018 H         1 <0>         0.1599
     54 H22         1.7427   -5.7755    3.4973 H         1 <0>         0.0855
     55 H23         0.2560   -4.8138    3.4125 H         1 <0>         0.0725
     56 H24         1.2515   -4.6492    1.2560 H         1 <0>         0.1000
     57 H25         2.8697   -4.3671    1.9361 H         1 <0>         0.0931
@<TRIPOS>BOND
     1    1    2 1
     2    1   33 1
     3    1   34 1
     4    1   35 1
     5    2    3 1
     6    3    8 ar
     7    3    4 ar
     8    4    5 ar
     9    4   36 1
    10    5   32 1
    11    5    6 ar
    12    6    7 ar
    13    6   11 1
    14    7    8 ar
    15    7    9 1
    16    8   37 1
    17    9   10 1
    18   10   38 1
    19   10   39 1
    20   10   40 1
    21   11   30 1
    22   11   12 1
    23   11   41 1
    24   12   17 1
    25   12   13 1
    26   12   42 1
    27   13   14 1
    28   13   43 1
    29   13   44 1
    30   14   15 1
    31   14   45 1
    32   14   46 1
    33   15   16 1
    34   15   47 1
    35   15   48 1
    36   16   17 1
    37   16   28 1
    38   16   49 1
    39   17   18 am
    40   18   19 2
    41   18   20 1
    42   20   21 2
    43   20   22 1
    44   22   27 ar
    45   22   23 ar
    46   23   24 ar
    47   23   50 1
    48   24   25 ar
    49   24   51 1
    50   25   26 ar
    51   25   52 1
    52   26   27 ar
    53   27   53 1
    54   28   29 2
    55   28   30 am
    56   30   31 1
    57   31   32 1
    58   31   54 1
    59   31   55 1
    60   32   56 1
    61   32   57 1
@<TRIPOS>MOLECULE
CHEMBL126031
   65    67     0     0     0
SMALL
USER_CHARGES

@<TRIPOS>ATOM
      1 C1         -0.0187    1.5258    0.0104 C.3       1 <0>        -0.1556
      2 C2          0.0021   -0.0041    0.0020 C.3       1 <0>        -0.1075
      3 C3          0.7182   -0.4975   -1.2568 C.3       1 <0>        -0.0874
      4 C4         -0.0218    0.0093   -2.4963 C.3       1 <0>        -0.1456
      5 C5          2.1536    0.0321   -1.2676 C.3       1 <0>        -0.1463
      6 C6          0.7386   -2.0043   -1.2651 C.2       1 <0>         0.3685
      7 O1          0.2326   -2.6202   -0.3576 O.2       1 <0>        -0.4133
      8 C7          1.3836   -2.7349   -2.3934 C.2       1 <0>         0.4986
      9 O2          1.8921   -2.1161   -3.3052 O.2       1 <0>        -0.4859
     10 N1          1.4018   -4.0825   -2.4008 N.am      1 <0>        -0.5866
     11 C8          0.8189   -4.9554   -1.3656 C.3       1 <0>         0.0923
     12 C9          1.6032   -6.2863   -1.4814 C.3       1 <0>        -0.1343
     13 C10         1.8073   -6.3951   -3.0156 C.3       1 <0>        -0.1189
     14 C11         2.0009   -4.9256   -3.4458 C.3       1 <0>         0.1445
     15 H1          3.0644   -4.7047   -3.5358 H         1 <0>         0.1187
     16 C12         1.3099   -4.6788   -4.7621 C.2       1 <0>         0.4542
     17 O3          0.4061   -3.8798   -4.8294 O.2       1 <0>        -0.4816
     18 O4          1.6986   -5.3465   -5.8597 O.3       1 <0>        -0.3384
     19 C13         0.9995   -5.0628   -7.0733 C.3       1 <0>         0.1341
     20 H2         -0.0266   -4.7762   -6.8430 H         1 <0>         0.0908
     21 C14         0.9939   -6.3083   -7.9618 C.3       1 <0>        -0.1027
     22 C15         0.1890   -7.4170   -7.2808 C.3       1 <0>        -0.0815
     23 C16         0.1836   -8.6438   -8.1560 C.ar      1 <0>        -0.0821
     24 C17        -0.8103   -8.8137   -9.1017 C.ar      1 <0>        -0.1181
     25 C18        -0.8153   -9.9391   -9.9045 C.ar      1 <0>        -0.1178
     26 C19         0.1738  -10.8942   -9.7620 C.ar      1 <0>        -0.1241
     27 C20         1.1681  -10.7239   -8.8169 C.ar      1 <0>        -0.1179
     28 C21         1.1755   -9.5965   -8.0170 C.ar      1 <0>        -0.1157
     29 C22         1.6864   -3.9330   -7.7963 C.ar      1 <0>        -0.1131
     30 C23         3.0670   -3.8755   -7.8354 C.ar      1 <0>        -0.0967
     31 C24         3.6971   -2.8391   -8.4986 C.ar      1 <0>        -0.1211
     32 C25         2.9466   -1.8605   -9.1231 C.ar      1 <0>        -0.1131
     33 C26         1.5660   -1.9185   -9.0847 C.ar      1 <0>        -0.1198
     34 C27         0.9359   -2.9572   -8.4252 C.ar      1 <0>        -0.1000
     35 H3          1.0039    1.9031    0.0027 H         1 <0>         0.0600
     36 H4         -0.5459    1.8868   -0.8726 H         1 <0>         0.0600
     37 H5         -0.5289    1.8773    0.9072 H         1 <0>         0.0582
     38 H6          0.5293   -0.3651    0.8851 H         1 <0>         0.0688
     39 H7         -1.0205   -0.3814    0.0098 H         1 <0>         0.0687
     40 H8         -0.0366    1.0992   -2.4903 H         1 <0>         0.0746
     41 H9          0.4884   -0.3422   -3.3931 H         1 <0>         0.0788
     42 H10        -1.0444   -0.3679   -2.4886 H         1 <0>         0.0558
     43 H11         2.6808   -0.3290   -0.3846 H         1 <0>         0.0563
     44 H12         2.6638   -0.3194   -2.1644 H         1 <0>         0.0776
     45 H13         2.1388    1.1220   -1.2617 H         1 <0>         0.0756
     46 H14         0.9587   -4.5174   -0.3773 H         1 <0>         0.1036
     47 H15        -0.2405   -5.1211   -1.5616 H         1 <0>         0.0760
     48 H16         2.5602   -6.2221   -0.9635 H         1 <0>         0.0851
     49 H17         1.0126   -7.1218   -1.1056 H         1 <0>         0.0956
     50 H18         2.6934   -6.9867   -3.2458 H         1 <0>         0.1029
     51 H19         0.9241   -6.8197   -3.4930 H         1 <0>         0.0846
     52 H20         0.5393   -6.0671   -8.9227 H         1 <0>         0.0875
     53 H21         2.0180   -6.6469   -8.1192 H         1 <0>         0.0806
     54 H22         0.6436   -7.6582   -6.3199 H         1 <0>         0.0781
     55 H23        -0.8350   -7.0784   -7.1235 H         1 <0>         0.0717
     56 H24        -1.5830   -8.0675   -9.2131 H         1 <0>         0.1205
     57 H25        -1.5921  -10.0722  -10.6429 H         1 <0>         0.1216
     58 H26         0.1694  -11.7738  -10.3887 H         1 <0>         0.1210
     59 H27         1.9406  -11.4703   -8.7053 H         1 <0>         0.1219
     60 H28         1.9545   -9.4616   -7.2812 H         1 <0>         0.1220
     61 H29         3.6533   -4.6400   -7.3475 H         1 <0>         0.1245
     62 H30         4.7757   -2.7938   -8.5286 H         1 <0>         0.1235
     63 H31         3.4388   -1.0504   -9.6406 H         1 <0>         0.1230
     64 H32         0.9796   -1.1538   -9.5723 H         1 <0>         0.1240
     65 H33        -0.1428   -3.0045   -8.3984 H         1 <0>         0.1213
@<TRIPOS>BOND
     1    1    2 1
     2    1   35 1
     3    1   36 1
     4    1   37 1
     5    2    3 1
     6    2   38 1
     7    2   39 1
     8    3    4 1
     9    3    5 1
    10    3    6 1
    11    4   40 1
    12    4   41 1
    13    4   42 1
    14    5   43 1
    15    5   44 1
    16    5   45 1
    17    6    7 2
    18    6    8 1
    19    8    9 2
    20    8   10 am
    21   10   14 1
    22   10   11 1
    23   11   12 1
    24   11   46 1
    25   11   47 1
    26   12   13 1
    27   12   48 1
    28   12   49 1
    29   13   14 1
    30   13   50 1
    31   13   51 1
    32   14   15 1
    33   14   16 1
    34   16   17 2
    35   16   18 1
    36   18   19 1
    37   19   20 1
    38   19   21 1
    39   19   29 1
    40   21   22 1
    41   21   52 1
    42   21   53 1
    43   22   23 1
    44   22   54 1
    45   22   55 1
    46   23   28 ar
    47   23   24 ar
    48   24   25 ar
    49   24   56 1
    50   25   26 ar
    51   25   57 1
    52   26   27 ar
    53   26   58 1
    54   27   28 ar
    55   27   59 1
    56   28   60 1
    57   29   34 ar
    58   29   30 ar
    59   30   31 ar
    60   30   61 1
    61   31   32 ar
    62   31   62 1
    63   32   33 ar
    64   32   63 1
    65   33   34 ar
    66   33   64 1
    67   34   65 1
@<TRIPOS>MOLECULE
CHEMBL151327
   60    63     0     0     0
SMALL
USER_CHARGES

@<TRIPOS>ATOM
      1 C1         -0.1540    1.5240   -0.0638 C.3       1 <0>        -0.1380
      2 C2         -0.0943   -0.0048   -0.0517 C.3       1 <0>        -0.0906
      3 C3          0.6367   -0.4768    1.2068 C.3       1 <0>        -0.1447
      4 C4         -1.5158   -0.5708   -0.0582 C.3       1 <0>        -0.1437
      5 C5          0.6445   -0.4884   -1.2729 C.2       1 <0>         0.3746
      6 O1          1.0786    0.3078   -2.0707 O.2       1 <0>        -0.4052
      7 C6          0.8396   -1.9494   -1.4963 C.2       1 <0>         0.4739
      8 O2          0.5035   -2.7440   -0.6427 O.2       1 <0>        -0.4746
      9 N1          1.3892   -2.3879   -2.6461 N.am      1 <0>        -0.5765
     10 C7          1.9345   -1.4378   -3.6252 C.3       1 <0>         0.0475
     11 C8          1.2939   -1.7132   -4.9892 C.3       1 <0>        -0.1354
     12 C9          1.5009   -3.1840   -5.3580 C.3       1 <0>        -0.1201
     13 C10         0.8195   -4.0738   -4.3158 C.3       1 <0>        -0.1230
     14 C11         1.4598   -3.8254   -2.9416 C.3       1 <0>         0.1480
     15 C12         0.7095   -4.5957   -1.8858 C.2       1 <0>         0.4793
     16 O3         -0.4840   -4.4506   -1.7659 O.2       1 <0>        -0.4945
     17 O4          1.3671   -5.4430   -1.0787 O.3       1 <0>        -0.3405
     18 C13         0.5927   -6.1400   -0.1006 C.3       1 <0>         0.1097
     19 C14         0.5410   -5.3184    1.1890 C.3       1 <0>        -0.0989
     20 C15         1.9615   -5.1090    1.7176 C.3       1 <0>        -0.0987
     21 C16         2.6045   -6.4675    2.0038 C.3       1 <0>        -0.0877
     22 C17         1.7754   -7.2137    3.0510 C.3       1 <0>        -0.1080
     23 C18         0.3550   -7.4231    2.5224 C.3       1 <0>        -0.0893
     24 C19        -0.2880   -6.0646    2.2363 C.3       1 <0>        -0.1062
     25 C20         0.4067   -8.2447    1.2328 C.3       1 <0>        -0.1058
     26 C21         1.2358   -7.4984    0.1856 C.3       1 <0>        -0.0822
     27 C22         2.6562   -7.2891    0.7142 C.3       1 <0>        -0.1041
     28 H1          0.8587    1.9272   -0.0591 H         1 <0>         0.0630
     29 H2         -0.6748    1.8602   -0.9603 H         1 <0>         0.0628
     30 H3         -0.6884    1.8737    0.8196 H         1 <0>         0.0702
     31 H4          0.1024   -0.1270    2.0901 H         1 <0>         0.0723
     32 H5          0.6793   -1.5659    1.2154 H         1 <0>         0.0818
     33 H6          1.6494   -0.0736    1.2114 H         1 <0>         0.0562
     34 H7         -2.0366   -0.2346   -0.9548 H         1 <0>         0.0564
     35 H8         -1.4733   -1.6599   -0.0496 H         1 <0>         0.0789
     36 H9         -2.0502   -0.2210    0.8251 H         1 <0>         0.0730
     37 H10         1.7050   -0.4190   -3.3127 H         1 <0>         0.1553
     38 H11         3.0146   -1.5659   -3.6963 H         1 <0>         0.0735
     39 H12         0.2266   -1.4972   -4.9402 H         1 <0>         0.0681
     40 H13         1.7594   -1.0798   -5.7443 H         1 <0>         0.0826
     41 H14         1.0675   -3.3768   -6.3393 H         1 <0>         0.0757
     42 H15         2.5679   -3.4054   -5.3826 H         1 <0>         0.0698
     43 H16        -0.2433   -3.8356   -4.2731 H         1 <0>         0.0822
     44 H17         0.9474   -5.1205   -4.5916 H         1 <0>         0.0836
     45 H18         2.5020   -4.1442   -2.9581 H         1 <0>         0.1059
     46 H19        -0.4192   -6.2891   -0.4772 H         1 <0>         0.0776
     47 H20         0.0829   -4.3506    0.9852 H         1 <0>         0.0905
     48 H21         2.5521   -4.5774    0.9716 H         1 <0>         0.0634
     49 H22         1.9246   -4.5237    2.6364 H         1 <0>         0.0590
     50 H23         3.6165   -6.3184    2.3804 H         1 <0>         0.0688
     51 H24         2.2336   -8.1815    3.2549 H         1 <0>         0.0616
     52 H25         1.7386   -6.6284    3.9698 H         1 <0>         0.0618
     53 H26        -0.2356   -7.9547    3.2685 H         1 <0>         0.0720
     54 H27        -0.3249   -5.4793    3.1550 H         1 <0>         0.0669
     55 H28        -1.3000   -6.2137    1.8597 H         1 <0>         0.0620
     56 H29         0.8648   -9.2125    1.4367 H         1 <0>         0.0709
     57 H30        -0.6052   -8.3938    0.8562 H         1 <0>         0.0639
     58 H31         1.2726   -8.0838   -0.7332 H         1 <0>         0.0746
     59 H32         3.2469   -6.7575   -0.0319 H         1 <0>         0.0681
     60 H33         3.1143   -8.2569    0.9180 H         1 <0>         0.0622
@<TRIPOS>BOND
     1    1    2 1
     2    1   28 1
     3    1   29 1
     4    1   30 1
     5    2    3 1
     6    2    4 1
     7    2    5 1
     8    3   31 1
     9    3   32 1
    10    3   33 1
    11    4   34 1
    12    4   35 1
    13    4   36 1
    14    5    6 2
    15    5    7 1
    16    7    8 2
    17    7    9 am
    18    9   14 1
    19    9   10 1
    20   10   11 1
    21   10   37 1
    22   10   38 1
    23   11   12 1
    24   11   39 1
    25   11   40 1
    26   12   13 1
    27   12   41 1
    28   12   42 1
    29   13   14 1
    30   13   43 1
    31   13   44 1
    32   14   15 1
    33   14   45 1
    34   15   16 2
    35   15   17 1
    36   17   18 1
    37   18   26 1
    38   18   19 1
    39   18   46 1
    40   19   24 1
    41   19   20 1
    42   19   47 1
    43   20   21 1
    44   20   48 1
    45   20   49 1
    46   21   27 1
    47   21   22 1
    48   21   50 1
    49   22   23 1
    50   22   51 1
    51   22   52 1
    52   23   24 1
    53   23   25 1
    54   23   53 1
    55   24   54 1
    56   24   55 1
    57   25   26 1
    58   25   56 1
    59   25   57 1
    60   26   27 1
    61   26   58 1
    62   27   59 1
    63   27   60 1
@<TRIPOS>MOLECULE
CHEMBL151327__1
   60    63     0     0     0
SMALL
USER_CHARGES

@<TRIPOS>ATOM
      1 C1         -1.2436    1.3401   -0.5814 C.3       1 <0>        -0.1374
      2 C2         -0.8461   -0.1266   -0.4030 C.3       1 <0>        -0.0918
      3 C3          0.1025   -0.2564    0.7904 C.3       1 <0>        -0.1438
      4 C4         -2.0993   -0.9678   -0.1522 C.3       1 <0>        -0.1452
      5 C5         -0.1546   -0.6148   -1.6498 C.2       1 <0>         0.3695
      6 O1          0.0039    0.1332   -2.5848 O.2       1 <0>        -0.4067
      7 C6          0.3338   -2.0212   -1.7292 C.2       1 <0>         0.4723
      8 O2          0.0463   -2.8136   -0.8561 O.2       1 <0>        -0.4761
      9 N1          1.0945   -2.4126   -2.7707 N.am      1 <0>        -0.5782
     10 C7          1.5792   -1.4337   -3.7533 C.3       1 <0>         0.0722
     11 C8          3.1003   -1.5688   -3.8748 C.3       1 <0>        -0.1391
     12 C9          3.4546   -3.0203   -4.2062 C.3       1 <0>        -0.1194
     13 C10         2.9773   -3.9346   -3.0756 C.3       1 <0>        -0.1249
     14 C11         1.4598   -3.8254   -2.9416 C.3       1 <0>         0.1497
     15 C12         1.0027   -4.6142   -1.7417 C.2       1 <0>         0.4760
     16 O3          1.5358   -4.4476   -0.6703 O.2       1 <0>        -0.4865
     17 O4          0.0032   -5.5019   -1.8632 O.3       1 <0>        -0.3427
     18 C13        -0.3786   -6.2143   -0.6847 C.3       1 <0>         0.1093
     19 C14         0.4412   -7.5019   -0.5791 C.3       1 <0>        -0.1022
     20 C15         0.1814   -8.3741   -1.8090 C.3       1 <0>        -0.1048
     21 C16        -1.3067   -8.7216   -1.8828 C.3       1 <0>        -0.0862
     22 C17        -1.7155   -9.4844   -0.6210 C.3       1 <0>        -0.1088
     23 C18        -1.4557   -8.6122    0.6089 C.3       1 <0>        -0.0891
     24 C19         0.0325   -8.2647    0.6826 C.3       1 <0>        -0.1054
     25 C20        -2.2755   -7.3246    0.5033 C.3       1 <0>        -0.1062
     26 C21        -1.8668   -6.5618   -0.7584 C.3       1 <0>        -0.0790
     27 C22        -2.1265   -7.4341   -1.9883 C.3       1 <0>        -0.1054
     28 H1         -0.3508    1.9393   -0.7601 H         1 <0>         0.0627
     29 H2         -1.9194    1.4325   -1.4316 H         1 <0>         0.0630
     30 H3         -1.7438    1.6932    0.3204 H         1 <0>         0.0701
     31 H4         -0.3976    0.0967    1.6922 H         1 <0>         0.0739
     32 H5          0.3857   -1.3013    0.9174 H         1 <0>         0.0767
     33 H6          0.9953    0.3429    0.6117 H         1 <0>         0.0570
     34 H7         -2.7751   -0.8753   -1.0024 H         1 <0>         0.0563
     35 H8         -1.8161   -2.0126   -0.0251 H         1 <0>         0.0815
     36 H9         -2.5994   -0.6146    0.7496 H         1 <0>         0.0721
     37 H10         1.1166   -1.6276   -4.7210 H         1 <0>         0.0779
     38 H11         1.3272   -0.4267   -3.4208 H         1 <0>         0.1349
     39 H12         3.4612   -0.9157   -4.6694 H         1 <0>         0.0844
     40 H13         3.5671   -1.2867   -2.9311 H         1 <0>         0.0691
     41 H14         2.9673   -3.3095   -5.1374 H         1 <0>         0.0704
     42 H15         4.5348   -3.1141   -4.3175 H         1 <0>         0.0766
     43 H16         3.2506   -4.9654   -3.3013 H         1 <0>         0.0844
     44 H17         3.4453   -3.6302   -2.1394 H         1 <0>         0.0835
     45 H18         0.9873   -4.2187   -3.8417 H         1 <0>         0.1061
     46 H19        -0.1935   -5.5929    0.1915 H         1 <0>         0.0849
     47 H20         1.5014   -7.2543   -0.5266 H         1 <0>         0.0716
     48 H21         0.4726   -7.8307   -2.7079 H         1 <0>         0.0649
     49 H22         0.7654   -9.2914   -1.7338 H         1 <0>         0.0623
     50 H23        -1.4918   -9.3430   -2.7589 H         1 <0>         0.0708
     51 H24        -2.7757   -9.7320   -0.6735 H         1 <0>         0.0630
     52 H25        -1.1315  -10.4017   -0.5458 H         1 <0>         0.0623
     53 H26        -1.7469   -9.1556    1.5078 H         1 <0>         0.0735
     54 H27         0.6165   -9.1820    0.7578 H         1 <0>         0.0682
     55 H28         0.2175   -7.6433    1.5588 H         1 <0>         0.0644
     56 H29        -3.3357   -7.5722    0.4508 H         1 <0>         0.0712
     57 H30        -2.0904   -6.7032    1.3795 H         1 <0>         0.0649
     58 H31        -2.4508   -5.6446   -0.8337 H         1 <0>         0.0761
     59 H32        -1.8353   -6.8907   -2.8872 H         1 <0>         0.0683
     60 H33        -3.1867   -7.6817   -2.0409 H         1 <0>         0.0629
@<TRIPOS>BOND
     1    1    2 1
     2    1   28 1
     3    1   29 1
     4    1   30 1
     5    2    3 1
     6    2    4 1
     7    2    5 1
     8    3   31 1
     9    3   32 1
    10    3   33 1
    11    4   34 1
    12    4   35 1
    13    4   36 1
    14    5    6 2
    15    5    7 1
    16    7    8 2
    17    7    9 am
    18    9   14 1
    19    9   10 1
    20   10   11 1
    21   10   37 1
    22   10   38 1
    23   11   12 1
    24   11   39 1
    25   11   40 1
    26   12   13 1
    27   12   41 1
    28   12   42 1
    29   13   14 1
    30   13   43 1
    31   13   44 1
    32   14   15 1
    33   14   45 1
    34   15   16 2
    35   15   17 1
    36   17   18 1
    37   18   26 1
    38   18   19 1
    39   18   46 1
    40   19   24 1
    41   19   20 1
    42   19   47 1
    43   20   21 1
    44   20   48 1
    45   20   49 1
    46   21   27 1
    47   21   22 1
    48   21   50 1
    49   22   23 1
    50   22   51 1
    51   22   52 1
    52   23   24 1
    53   23   25 1
    54   23   53 1
    55   24   54 1
    56   24   55 1
    57   25   26 1
    58   25   56 1
    59   25   57 1
    60   26   27 1
    61   26   58 1
    62   27   59 1
    63   27   60 1
@<TRIPOS>MOLECULE
CHEMBL406996
   81    84     0     0     0
SMALL
USER_CHARGES

@<TRIPOS>ATOM
      1 C1         -1.6072   -2.4989   -0.5383 C.3       1 <0>        -0.1503
      2 C2         -1.2131   -3.2409   -1.8170 C.3       1 <0>        -0.0589
      3 H1         -2.0804   -3.3219   -2.4721 H         1 <0>         0.0984
      4 C3         -0.7187   -4.6203   -1.4652 C.ar      1 <0>        -0.0783
      5 C4          0.3762   -4.7713   -0.6350 C.ar      1 <0>        -0.0718
      6 C5          0.8297   -6.0366   -0.3123 C.ar      1 <0>        -0.1118
      7 C6          0.1881   -7.1510   -0.8195 C.ar      1 <0>        -0.1106
      8 C7         -0.9074   -7.0001   -1.6490 C.ar      1 <0>        -0.1244
      9 C8         -1.3635   -5.7348   -1.9683 C.ar      1 <0>        -0.1144
     10 C9         -0.1200   -2.4802   -2.5225 C.2       1 <0>         0.5064
     11 O1          1.0037   -2.9343   -2.5663 O.2       1 <0>        -0.4695
     12 N1         -0.3912   -1.2954   -3.1047 N.am      1 <0>        -0.6087
     13 C10        -1.7206   -0.6837   -2.9735 C.3       1 <0>         0.1005
     14 C11        -1.5564    0.7434   -2.4414 C.3       1 <0>        -0.1394
     15 C12        -0.5964    1.5150   -3.3499 C.3       1 <0>        -0.1154
     16 C13         0.7747    0.8352   -3.3406 C.3       1 <0>        -0.1264
     17 C14         0.6387   -0.5880   -3.8777 C.3       1 <0>         0.1600
     18 H2          0.3478   -0.5528   -4.9276 H         1 <0>         0.0967
     19 C15         1.9564   -1.3060   -3.7394 C.2       1 <0>         0.4753
     20 O2          2.5138   -1.3446   -2.6681 O.2       1 <0>        -0.4788
     21 O3          2.5108   -1.9027   -4.8064 O.3       1 <0>        -0.3445
     22 C16         3.7607   -2.5649   -4.6028 C.3       1 <0>         0.1442
     23 C17         4.5785   -2.5191   -5.8951 C.3       1 <0>        -0.1043
     24 C18         4.9375   -1.0678   -6.2203 C.3       1 <0>        -0.0776
     25 C19         5.7431   -1.0227   -7.4931 C.ar      1 <0>        -0.0732
     26 C20         7.1215   -1.1154   -7.4407 C.ar      1 <0>        -0.1117
     27 C21         7.8649   -1.0745   -8.6054 C.ar      1 <0>        -0.1687
     28 C22         7.2286   -0.9409   -9.8291 C.ar      1 <0>         0.0919
     29 C23         5.8412   -0.8482   -9.8819 C.ar      1 <0>         0.0994
     30 C24         5.1017   -0.8946   -8.7110 C.ar      1 <0>        -0.1669
     31 O4          5.2121   -0.7170  -11.0805 O.3       1 <0>        -0.3084
     32 C25         3.7861   -0.6274  -11.0583 C.3       1 <0>         0.0263
     33 O5          7.9585   -0.9002  -10.9759 O.3       1 <0>        -0.3091
     34 C26         9.3780   -1.0004  -10.8453 C.3       1 <0>         0.0264
     35 C27         3.5117   -4.0001   -4.2164 C.ar      1 <0>        -0.0589
     36 C28         2.5102   -4.7201   -4.8416 C.ar      1 <0>        -0.1375
     37 C29         2.2793   -6.0368   -4.4894 C.ar      1 <0>        -0.0786
     38 C30         3.0489   -6.6366   -3.5111 C.ar      1 <0>        -0.2045
     39 C31         4.0541   -5.9165   -2.8825 C.ar      1 <0>         0.1416
     40 C32         4.2878   -4.5969   -3.2421 C.ar      1 <0>        -0.1385
     41 O6          4.8125   -6.5043   -1.9200 O.3       1 <0>        -0.2830
     42 C33         4.5196   -7.8671   -1.6054 C.3       1 <0>        -0.0023
     43 C34         5.4548   -8.3453   -0.5248 C.2       1 <0>         0.5011
     44 O7          6.2944   -7.5892   -0.0666 O.co2     1 <0>        -0.6709
     45 O8          5.3719   -9.4884   -0.1088 O.co2     1 <0>        -0.6898
     46 H3         -0.7720   -2.5127    0.1619 H         1 <0>         0.0671
     47 H4         -1.8612   -1.4670   -0.7806 H         1 <0>         0.0688
     48 H5         -2.4693   -2.9885   -0.0853 H         1 <0>         0.0710
     49 H6          0.8775   -3.9006   -0.2387 H         1 <0>         0.1168
     50 H7          1.6856   -6.1545    0.3358 H         1 <0>         0.1213
     51 H8          0.5428   -8.1396   -0.5680 H         1 <0>         0.1201
     52 H9         -1.4085   -7.8707   -2.0456 H         1 <0>         0.1175
     53 H10        -2.2216   -5.6169   -2.6134 H         1 <0>         0.1140
     54 H11        -2.2082   -0.6565   -3.9480 H         1 <0>         0.0720
     55 H12        -2.3237   -1.2662   -2.2770 H         1 <0>         0.0999
     56 H13        -2.5259    1.2414   -2.4302 H         1 <0>         0.0796
     57 H14        -1.1522    0.7102   -1.4297 H         1 <0>         0.0714
     58 H15        -0.9891    1.5266   -4.3667 H         1 <0>         0.0680
     59 H16        -0.4969    2.5381   -2.9876 H         1 <0>         0.0730
     60 H17         1.4643    1.3984   -3.9693 H         1 <0>         0.0804
     61 H18         1.1570    0.8011   -2.3204 H         1 <0>         0.0825
     62 H19         4.3114   -2.0645   -3.8063 H         1 <0>         0.0885
     63 H20         5.4922   -3.0996   -5.7675 H         1 <0>         0.0884
     64 H21         3.9916   -2.9399   -6.7115 H         1 <0>         0.0771
     65 H22         4.0238   -0.4873   -6.3478 H         1 <0>         0.0759
     66 H23         5.5244   -0.6470   -5.4038 H         1 <0>         0.0745
     67 H24         7.6186   -1.2195   -6.4875 H         1 <0>         0.1289
     68 H25         8.9416   -1.1464   -8.5617 H         1 <0>         0.1347
     69 H26         4.0245   -0.8266   -8.7496 H         1 <0>         0.1351
     70 H27         3.3724   -1.5295  -10.6076 H         1 <0>         0.0556
     71 H28         3.4857    0.2417  -10.4732 H         1 <0>         0.0540
     72 H29         3.4125   -0.5262  -12.0773 H         1 <0>         0.0987
     73 H30         9.7458   -0.1759  -10.2346 H         1 <0>         0.0539
     74 H31         9.6331   -1.9472  -10.3693 H         1 <0>         0.0552
     75 H32         9.8378   -0.9546  -11.8325 H         1 <0>         0.0988
     76 H33         1.9071   -4.2528   -5.6060 H         1 <0>         0.1101
     77 H34         1.4965   -6.5970   -4.9791 H         1 <0>         0.1116
     78 H35         2.8677   -7.6651   -3.2358 H         1 <0>         0.1209
     79 H36         5.0730   -4.0356   -2.7575 H         1 <0>         0.1224
     80 H37         3.4901   -7.9461   -1.2561 H         1 <0>         0.0561
     81 H38         4.6492   -8.4816   -2.4963 H         1 <0>         0.0552
@<TRIPOS>BOND
     1    1    2 1
     2    1   46 1
     3    1   47 1
     4    1   48 1
     5    2    3 1
     6    2    4 1
     7    2   10 1
     8    4    9 ar
     9    4    5 ar
    10    5    6 ar
    11    5   49 1
    12    6    7 ar
    13    6   50 1
    14    7    8 ar
    15    7   51 1
    16    8    9 ar
    17    8   52 1
    18    9   53 1
    19   10   11 2
    20   10   12 am
    21   12   17 1
    22   12   13 1
    23   13   14 1
    24   13   54 1
    25   13   55 1
    26   14   15 1
    27   14   56 1
    28   14   57 1
    29   15   16 1
    30   15   58 1
    31   15   59 1
    32   16   17 1
    33   16   60 1
    34   16   61 1
    35   17   18 1
    36   17   19 1
    37   19   20 2
    38   19   21 1
    39   21   22 1
    40   22   23 1
    41   22   35 1
    42   22   62 1
    43   23   24 1
    44   23   63 1
    45   23   64 1
    46   24   25 1
    47   24   65 1
    48   24   66 1
    49   25   30 ar
    50   25   26 ar
    51   26   27 ar
    52   26   67 1
    53   27   28 ar
    54   27   68 1
    55   28   29 ar
    56   28   33 1
    57   29   30 ar
    58   29   31 1
    59   30   69 1
    60   31   32 1
    61   32   70 1
    62   32   71 1
    63   32   72 1
    64   33   34 1
    65   34   73 1
    66   34   74 1
    67   34   75 1
    68   35   40 ar
    69   35   36 ar
    70   36   37 ar
    71   36   76 1
    72   37   38 ar
    73   37   77 1
    74   38   39 ar
    75   38   78 1
    76   39   40 ar
    77   39   41 1
    78   40   79 1
    79   41   42 1
    80   42   43 1
    81   42   80 1
    82   42   81 1
    83   43   44 2
    84   43   45 1
@<TRIPOS>MOLECULE
CHEMBL406996__1
   81    84     0     0     0
SMALL
USER_CHARGES

@<TRIPOS>ATOM
      1 C1         -1.6173   -2.5222   -0.5580 C.3       1 <0>        -0.1514
      2 C2         -1.2184   -3.2552   -1.8404 C.3       1 <0>        -0.0627
      3 H1         -2.0835   -3.3321   -2.4991 H         1 <0>         0.1018
      4 C3         -0.7245   -4.6368   -1.4965 C.ar      1 <0>        -0.0748
      5 C4          0.3676   -4.7929   -0.6635 C.ar      1 <0>        -0.0764
      6 C5          0.8206   -6.0602   -0.3480 C.ar      1 <0>        -0.1208
      7 C6          0.1813   -7.1714   -0.8651 C.ar      1 <0>        -0.1162
      8 C7         -0.9114   -7.0153   -1.6973 C.ar      1 <0>        -0.1245
      9 C8         -1.3671   -5.7481   -2.0094 C.ar      1 <0>        -0.1114
     10 C9         -0.1233   -2.4892   -2.5369 C.2       1 <0>         0.5136
     11 O1          1.0009   -2.9420   -2.5793 O.2       1 <0>        -0.4907
     12 N1         -0.3934   -1.3009   -3.1127 N.am      1 <0>        -0.6048
     13 C10        -1.7236   -0.6909   -2.9821 C.3       1 <0>         0.0993
     14 C11        -1.5621    0.7330   -2.4406 C.3       1 <0>        -0.1395
     15 C12        -0.5996    1.5108   -3.3410 C.3       1 <0>        -0.1161
     16 C13         0.7719    0.8319   -3.3312 C.3       1 <0>        -0.1278
     17 C14         0.6387   -0.5880   -3.8777 C.3       1 <0>         0.1591
     18 H2          0.3514   -0.5464   -4.9284 H         1 <0>         0.0997
     19 C15         1.9564   -1.3060   -3.7394 C.2       1 <0>         0.4767
     20 O2          2.5138   -1.3446   -2.6681 O.2       1 <0>        -0.4787
     21 O3          2.5108   -1.9027   -4.8064 O.3       1 <0>        -0.3427
     22 C16         3.7607   -2.5649   -4.6028 C.3       1 <0>         0.1443
     23 C17         3.8797   -3.7399   -5.5754 C.3       1 <0>        -0.1012
     24 C18         2.8104   -4.7839   -5.2473 C.3       1 <0>        -0.0712
     25 C19         2.9277   -5.9412   -6.2054 C.ar      1 <0>        -0.0692
     26 C20         2.2252   -5.9249   -7.3960 C.ar      1 <0>        -0.1133
     27 C21         2.3294   -6.9842   -8.2782 C.ar      1 <0>        -0.1700
     28 C22         3.1396   -8.0652   -7.9701 C.ar      1 <0>         0.0898
     29 C23         3.8470   -8.0814   -6.7719 C.ar      1 <0>         0.1026
     30 C24         3.7418   -7.0143   -5.8943 C.ar      1 <0>        -0.1676
     31 O4          4.6435   -9.1402   -6.4650 O.3       1 <0>        -0.3084
     32 C25         5.3396   -9.0884   -5.2181 C.3       1 <0>         0.0249
     33 O5          3.2429   -9.1082   -8.8366 O.3       1 <0>        -0.3086
     34 C26         2.4878   -9.0234  -10.0469 C.3       1 <0>         0.0274
     35 C27         4.8883   -1.5952   -4.8460 C.ar      1 <0>        -0.0743
     36 C28         4.7646   -0.6222   -5.8209 C.ar      1 <0>        -0.1561
     37 C29         5.7972    0.2689   -6.0464 C.ar      1 <0>        -0.0813
     38 C30         6.9560    0.1889   -5.2983 C.ar      1 <0>        -0.2136
     39 C31         7.0826   -0.7862   -4.3200 C.ar      1 <0>         0.1416
     40 C32         6.0423   -1.6755   -4.0913 C.ar      1 <0>        -0.1421
     41 O6          8.2215   -0.8669   -3.5828 O.3       1 <0>        -0.2808
     42 C33         9.2482    0.0849   -3.8688 C.3       1 <0>        -0.0064
     43 C34        10.4253   -0.1574   -2.9594 C.2       1 <0>         0.5012
     44 O7         10.3883   -1.0614   -2.1422 O.co2     1 <0>        -0.6702
     45 O8         11.4145    0.5506   -3.0410 O.co2     1 <0>        -0.6881
     46 H3         -0.7844   -2.5401    0.1448 H         1 <0>         0.0676
     47 H4         -1.8714   -1.4889   -0.7942 H         1 <0>         0.0716
     48 H5         -2.4805   -3.0155   -0.1111 H         1 <0>         0.0721
     49 H6          0.8671   -3.9247   -0.2596 H         1 <0>         0.1211
     50 H7          1.6743   -6.1822    0.3022 H         1 <0>         0.1211
     51 H8          0.5357   -8.1615   -0.6191 H         1 <0>         0.1191
     52 H9         -1.4107   -7.8835   -2.1015 H         1 <0>         0.1195
     53 H10        -2.2230   -5.6262   -2.6566 H         1 <0>         0.1179
     54 H11        -2.2079   -0.6579   -3.9581 H         1 <0>         0.0745
     55 H12        -2.3287   -1.2781   -2.2914 H         1 <0>         0.0997
     56 H13        -2.5320    1.2302   -2.4296 H         1 <0>         0.0807
     57 H14        -1.1613    0.6937   -1.4277 H         1 <0>         0.0716
     58 H15        -0.9888    1.5285   -4.3590 H         1 <0>         0.0688
     59 H16        -0.5020    2.5318   -2.9719 H         1 <0>         0.0746
     60 H17         1.4633    1.3995   -3.9541 H         1 <0>         0.0837
     61 H18         1.1507    0.7917   -2.3100 H         1 <0>         0.0831
     62 H19         3.8136   -2.9342   -3.5786 H         1 <0>         0.0958
     63 H20         3.7380   -3.3829   -6.5955 H         1 <0>         0.0766
     64 H21         4.8679   -4.1902   -5.4820 H         1 <0>         0.0856
     65 H22         2.9521   -5.1408   -4.2272 H         1 <0>         0.0731
     66 H23         1.8222   -4.3335   -5.3408 H         1 <0>         0.0766
     67 H24         1.5934   -5.0829   -7.6373 H         1 <0>         0.1256
     68 H25         1.7790   -6.9693   -9.2073 H         1 <0>         0.1328
     69 H26         4.2927   -7.0227   -4.9654 H         1 <0>         0.1355
     70 H27         5.9931   -8.2162   -5.2027 H         1 <0>         0.0576
     71 H28         4.6197   -9.0175   -4.4028 H         1 <0>         0.0547
     72 H29         5.9370   -9.9921   -5.0977 H         1 <0>         0.1001
     73 H30         1.4271   -8.9445   -9.8086 H         1 <0>         0.0527
     74 H31         2.8003   -8.1435  -10.6091 H         1 <0>         0.0538
     75 H32         2.6601   -9.9175  -10.6460 H         1 <0>         0.0982
     76 H33         3.8598   -0.5584   -6.4072 H         1 <0>         0.1201
     77 H34         5.6981    1.0279   -6.8083 H         1 <0>         0.1199
     78 H35         7.7628    0.8847   -5.4754 H         1 <0>         0.1275
     79 H36         6.1366   -2.4326   -3.3269 H         1 <0>         0.1285
     80 H37         9.5632   -0.0213   -4.9069 H         1 <0>         0.0590
     81 H38         8.8652    1.0924   -3.7066 H         1 <0>         0.0586
@<TRIPOS>BOND
     1    1    2 1
     2    1   46 1
     3    1   47 1
     4    1   48 1
     5    2    3 1
     6    2    4 1
     7    2   10 1
     8    4    9 ar
     9    4    5 ar
    10    5    6 ar
    11    5   49 1
    12    6    7 ar
    13    6   50 1
    14    7    8 ar
    15    7   51 1
    16    8    9 ar
    17    8   52 1
    18    9   53 1
    19   10   11 2
    20   10   12 am
    21   12   17 1
    22   12   13 1
    23   13   14 1
    24   13   54 1
    25   13   55 1
    26   14   15 1
    27   14   56 1
    28   14   57 1
    29   15   16 1
    30   15   58 1
    31   15   59 1
    32   16   17 1
    33   16   60 1
    34   16   61 1
    35   17   18 1
    36   17   19 1
    37   19   20 2
    38   19   21 1
    39   21   22 1
    40   22   23 1
    41   22   35 1
    42   22   62 1
    43   23   24 1
    44   23   63 1
    45   23   64 1
    46   24   25 1
    47   24   65 1
    48   24   66 1
    49   25   30 ar
    50   25   26 ar
    51   26   27 ar
    52   26   67 1
    53   27   28 ar
    54   27   68 1
    55   28   29 ar
    56   28   33 1
    57   29   30 ar
    58   29   31 1
    59   30   69 1
    60   31   32 1
    61   32   70 1
    62   32   71 1
    63   32   72 1
    64   33   34 1
    65   34   73 1
    66   34   74 1
    67   34   75 1
    68   35   40 ar
    69   35   36 ar
    70   36   37 ar
    71   36   76 1
    72   37   38 ar
    73   37   77 1
    74   38   39 ar
    75   38   78 1
    76   39   40 ar
    77   39   41 1
    78   40   79 1
    79   41   42 1
    80   42   43 1
    81   42   80 1
    82   42   81 1
    83   43   44 2
    84   43   45 1
@<TRIPOS>MOLECULE
CHEMBL14903
   81    84     0     0     0
SMALL
USER_CHARGES

@<TRIPOS>ATOM
      1 C1          2.5861    3.3271    2.7926 C.3       1 <0>        -0.1432
      2 C2          2.5795    2.2340    1.7221 C.3       1 <0>        -0.0593
      3 H1          1.7238    2.3768    1.0622 H         1 <0>         0.0982
      4 C3          3.8519    2.3105    0.9183 C.ar      1 <0>        -0.0817
      5 C4          5.0748    2.1521    1.5431 C.ar      1 <0>        -0.0706
      6 C5          6.2420    2.2223    0.8058 C.ar      1 <0>        -0.1135
      7 C6          6.1863    2.4503   -0.5565 C.ar      1 <0>        -0.1105
      8 C7          4.9634    2.6078   -1.1815 C.ar      1 <0>        -0.1245
      9 C8          3.7960    2.5334   -0.4449 C.ar      1 <0>        -0.1136
     10 C9          2.4838    0.8835    2.3838 C.2       1 <0>         0.5062
     11 O1          3.4179    0.1122    2.3258 O.2       1 <0>        -0.4699
     12 N1          1.3600    0.5327    3.0401 N.am      1 <0>        -0.6087
     13 C10         0.1914    1.4231    3.0522 C.3       1 <0>         0.1085
     14 C11        -1.0327    0.6368    2.5726 C.3       1 <0>        -0.1402
     15 C12        -1.1926   -0.6220    3.4282 C.3       1 <0>        -0.1154
     16 C13         0.0441   -1.5094    3.2695 C.3       1 <0>        -0.1269
     17 C14         1.2783   -0.7500    3.7519 C.3       1 <0>         0.1605
     18 H2          1.1962   -0.5686    4.8235 H         1 <0>         0.0973
     19 C15         2.5135   -1.5651    3.4677 C.2       1 <0>         0.4741
     20 O2          2.7310   -1.9618    2.3473 O.2       1 <0>        -0.4768
     21 O3          3.3722   -1.8504    4.4592 O.3       1 <0>        -0.3444
     22 C16         4.5220   -2.6273    4.1181 C.3       1 <0>         0.1433
     23 C17         4.9509   -3.4613    5.3270 C.3       1 <0>        -0.1040
     24 C18         3.8580   -4.4796    5.6577 C.3       1 <0>        -0.0777
     25 C19         4.2805   -5.3010    6.8485 C.ar      1 <0>        -0.0732
     26 C20         4.9974   -6.4683    6.6618 C.ar      1 <0>        -0.1118
     27 C21         5.3873   -7.2254    7.7508 C.ar      1 <0>        -0.1687
     28 C22         5.0600   -6.8145    9.0330 C.ar      1 <0>         0.0919
     29 C23         4.3389   -5.6393    9.2210 C.ar      1 <0>         0.0994
     30 C24         3.9553   -4.8827    8.1253 C.ar      1 <0>        -0.1669
     31 O4          4.0153   -5.2319   10.4774 O.3       1 <0>        -0.3083
     32 C25         3.2738   -4.0159   10.5944 C.3       1 <0>         0.0263
     33 O5          5.4424   -7.5583   10.1054 O.3       1 <0>        -0.3090
     34 C26         6.1796   -8.7526    9.8368 C.3       1 <0>         0.0264
     35 C27         5.6475   -1.7092    3.7164 C.ar      1 <0>        -0.0573
     36 C28         5.8631   -0.5346    4.4137 C.ar      1 <0>        -0.1399
     37 C29         6.8947    0.3098    4.0476 C.ar      1 <0>        -0.0837
     38 C30         7.7128   -0.0179    2.9835 C.ar      1 <0>        -0.2092
     39 C31         7.4985   -1.1955    2.2825 C.ar      1 <0>         0.1444
     40 C32         6.4662   -2.0443    2.6557 C.ar      1 <0>        -0.1368
     41 O6          8.3018   -1.5201    1.2355 O.3       1 <0>        -0.2820
     42 C33         9.3479   -0.6021    0.9114 C.3       1 <0>        -0.0028
     43 C34        10.1282   -1.1254   -0.2669 C.2       1 <0>         0.5012
     44 O7          9.8173   -2.1860   -0.7815 O.co2     1 <0>        -0.6703
     45 O8         11.0705   -0.4880   -0.7056 O.co2     1 <0>        -0.6897
     46 H3          3.3879    3.1332    3.5050 H         1 <0>         0.0638
     47 H4          2.7458    4.2967    2.3209 H         1 <0>         0.0713
     48 H5          1.6292    3.3303    3.3145 H         1 <0>         0.0649
     49 H6          5.1183    1.9740    2.6074 H         1 <0>         0.1172
     50 H7          7.1974    2.0993    1.2941 H         1 <0>         0.1181
     51 H8          7.0982    2.5059   -1.1324 H         1 <0>         0.1217
     52 H9          4.9199    2.7863   -2.2457 H         1 <0>         0.1191
     53 H10         2.8404    2.6527   -0.9338 H         1 <0>         0.1148
     54 H11         0.0188    1.7857    4.0656 H         1 <0>         0.0736
     55 H12         0.3680    2.2669    2.3852 H         1 <0>         0.0933
     56 H13        -1.9238    1.2571    2.6679 H         1 <0>         0.0795
     57 H14        -0.8965    0.3525    1.5292 H         1 <0>         0.0708
     58 H15        -1.3040   -0.3381    4.4747 H         1 <0>         0.0682
     59 H16        -2.0772   -1.1708    3.1050 H         1 <0>         0.0729
     60 H17        -0.0807   -2.4165    3.8607 H         1 <0>         0.0807
     61 H18         0.1701   -1.7734    2.2194 H         1 <0>         0.0822
     62 H19         4.2795   -3.2899    3.2872 H         1 <0>         0.0886
     63 H20         5.8782   -3.9856    5.0961 H         1 <0>         0.0883
     64 H21         5.1079   -2.8056    6.1835 H         1 <0>         0.0773
     65 H22         2.9307   -3.9553    5.8886 H         1 <0>         0.0761
     66 H23         3.7011   -5.1353    4.8013 H         1 <0>         0.0745
     67 H24         5.2531   -6.7897    5.6629 H         1 <0>         0.1288
     68 H25         5.9466   -8.1372    7.6022 H         1 <0>         0.1347
     69 H26         3.3988   -3.9683    8.2686 H         1 <0>         0.1352
     70 H27         3.8475   -3.1973   10.1597 H         1 <0>         0.0556
     71 H28         2.3259   -4.1161   10.0658 H         1 <0>         0.0541
     72 H29         3.0826   -3.8068   11.6469 H         1 <0>         0.0987
     73 H30         5.5790   -9.4188    9.2175 H         1 <0>         0.0539
     74 H31         7.1009   -8.5006    9.3117 H         1 <0>         0.0552
     75 H32         6.4212   -9.2495   10.7764 H         1 <0>         0.0988
     76 H33         5.2244   -0.2763    5.2453 H         1 <0>         0.1116
     77 H34         7.0611    1.2266    4.5938 H         1 <0>         0.1135
     78 H35         8.5181    0.6425    2.6975 H         1 <0>         0.1219
     79 H36         6.3004   -2.9640    2.1145 H         1 <0>         0.1227
     80 H37         8.9163    0.3667    0.6601 H         1 <0>         0.0559
     81 H38        10.0132   -0.4923    1.7679 H         1 <0>         0.0559
@<TRIPOS>BOND
     1    1    2 1
     2    1   46 1
     3    1   47 1
     4    1   48 1
     5    2    3 1
     6    2    4 1
     7    2   10 1
     8    4    9 ar
     9    4    5 ar
    10    5    6 ar
    11    5   49 1
    12    6    7 ar
    13    6   50 1
    14    7    8 ar
    15    7   51 1
    16    8    9 ar
    17    8   52 1
    18    9   53 1
    19   10   11 2
    20   10   12 am
    21   12   17 1
    22   12   13 1
    23   13   14 1
    24   13   54 1
    25   13   55 1
    26   14   15 1
    27   14   56 1
    28   14   57 1
    29   15   16 1
    30   15   58 1
    31   15   59 1
    32   16   17 1
    33   16   60 1
    34   16   61 1
    35   17   18 1
    36   17   19 1
    37   19   20 2
    38   19   21 1
    39   21   22 1
    40   22   23 1
    41   22   35 1
    42   22   62 1
    43   23   24 1
    44   23   63 1
    45   23   64 1
    46   24   25 1
    47   24   65 1
    48   24   66 1
    49   25   30 ar
    50   25   26 ar
    51   26   27 ar
    52   26   67 1
    53   27   28 ar
    54   27   68 1
    55   28   29 ar
    56   28   33 1
    57   29   30 ar
    58   29   31 1
    59   30   69 1
    60   31   32 1
    61   32   70 1
    62   32   71 1
    63   32   72 1
    64   33   34 1
    65   34   73 1
    66   34   74 1
    67   34   75 1
    68   35   40 ar
    69   35   36 ar
    70   36   37 ar
    71   36   76 1
    72   37   38 ar
    73   37   77 1
    74   38   39 ar
    75   38   78 1
    76   39   40 ar
    77   39   41 1
    78   40   79 1
    79   41   42 1
    80   42   43 1
    81   42   80 1
    82   42   81 1
    83   43   44 2
    84   43   45 1
@<TRIPOS>MOLECULE
CHEMBL14903__1
   81    84     0     0     0
SMALL
USER_CHARGES

@<TRIPOS>ATOM
      1 C1          2.6100    3.3357    2.8875 C.3       1 <0>        -0.1445
      2 C2          2.6163    2.2655    1.7940 C.3       1 <0>        -0.0636
      3 H1          1.7715    2.4256    1.1241 H         1 <0>         0.1017
      4 C3          3.9014    2.3539    1.0119 C.ar      1 <0>        -0.0736
      5 C4          5.1138    2.1776    1.6523 C.ar      1 <0>        -0.0777
      6 C5          6.2926    2.2587    0.9349 C.ar      1 <0>        -0.1209
      7 C6          6.2591    2.5157   -0.4229 C.ar      1 <0>        -0.1165
      8 C7          5.0467    2.6912   -1.0635 C.ar      1 <0>        -0.1236
      9 C8          3.8677    2.6058   -0.3468 C.ar      1 <0>        -0.1107
     10 C9          2.5053    0.9016    2.4254 C.2       1 <0>         0.5134
     11 O1          3.4350    0.1256    2.3598 O.2       1 <0>        -0.4906
     12 N1          1.3729    0.5443    3.0630 N.am      1 <0>        -0.6048
     13 C10         0.2076    1.4391    3.0772 C.3       1 <0>         0.1072
     14 C11        -1.0139    0.6658    2.5706 C.3       1 <0>        -0.1403
     15 C12        -1.1883   -0.6066    3.4028 C.3       1 <0>        -0.1161
     16 C13         0.0467   -1.4961    3.2428 C.3       1 <0>        -0.1283
     17 C14         1.2783   -0.7500    3.7519 C.3       1 <0>         0.1595
     18 H2          1.1849   -0.5865    4.8255 H         1 <0>         0.1002
     19 C15         2.5135   -1.5651    3.4677 C.2       1 <0>         0.4757
     20 O2          2.7310   -1.9618    2.3473 O.2       1 <0>        -0.4776
     21 O3          3.3722   -1.8504    4.4592 O.3       1 <0>        -0.3428
     22 C16         4.5220   -2.6273    4.1181 C.3       1 <0>         0.1438
     23 C17         5.6832   -2.2518    5.0409 C.3       1 <0>        -0.1012
     24 C18         6.0870   -0.7981    4.7868 C.3       1 <0>        -0.0724
     25 C19         7.2308   -0.4283    5.6958 C.ar      1 <0>        -0.0706
     26 C20         6.9741    0.0981    6.9481 C.ar      1 <0>        -0.1132
     27 C21         8.0198    0.4389    7.7856 C.ar      1 <0>        -0.1700
     28 C22         9.3287    0.2528    7.3706 C.ar      1 <0>         0.0902
     29 C23         9.5870   -0.2775    6.1103 C.ar      1 <0>         0.1027
     30 C24         8.5342   -0.6215    5.2777 C.ar      1 <0>        -0.1680
     31 O4         10.8699   -0.4620    5.6985 O.3       1 <0>        -0.3083
     32 C25        11.0595   -1.0107    4.3927 C.3       1 <0>         0.0248
     33 O5         10.3586    0.5880    8.1931 O.3       1 <0>        -0.3085
     34 C26        10.0184    1.1273    9.4720 C.3       1 <0>         0.0273
     35 C27         4.2050   -4.0917    4.2800 C.ar      1 <0>        -0.0744
     36 C28         3.3562   -4.5072    5.2896 C.ar      1 <0>        -0.1561
     37 C29         3.0634   -5.8498    5.4408 C.ar      1 <0>        -0.0814
     38 C30         3.6187   -6.7800    4.5833 C.ar      1 <0>        -0.2136
     39 C31         4.4704   -6.3657    3.5698 C.ar      1 <0>         0.1417
     40 C32         4.7579   -5.0170    3.4164 C.ar      1 <0>        -0.1422
     41 O6          5.0178   -7.2787    2.7250 O.3       1 <0>        -0.2808
     42 C33         4.6728   -8.6489    2.9386 C.3       1 <0>        -0.0063
     43 C34         5.3687   -9.5077    1.9143 C.2       1 <0>         0.5011
     44 O7          6.0929   -8.9940    1.0788 O.co2     1 <0>        -0.6701
     45 O8          5.2074  -10.7162    1.9211 O.co2     1 <0>        -0.6881
     46 H3          3.3999    3.1236    3.6080 H         1 <0>         0.0646
     47 H4          2.7806    4.3144    2.4389 H         1 <0>         0.0720
     48 H5          1.6451    3.3315    3.3944 H         1 <0>         0.0678
     49 H6          5.1399    1.9768    2.7131 H         1 <0>         0.1184
     50 H7          7.2398    2.1216    1.4353 H         1 <0>         0.1201
     51 H8          7.1801    2.5798   -0.9833 H         1 <0>         0.1197
     52 H9          5.0205    2.8923   -2.1242 H         1 <0>         0.1205
     53 H10         2.9203    2.7392   -0.8479 H         1 <0>         0.1183
     54 H11         0.0250    1.7850    4.0946 H         1 <0>         0.0760
     55 H12         0.3949    2.2933    2.4267 H         1 <0>         0.0931
     56 H13        -1.9038    1.2880    2.6665 H         1 <0>         0.0806
     57 H14        -0.8671    0.3988    1.5241 H         1 <0>         0.0711
     58 H15        -1.3103   -0.3401    4.4526 H         1 <0>         0.0689
     59 H16        -2.0713   -1.1463    3.0604 H         1 <0>         0.0745
     60 H17        -0.0881   -2.4127    3.8171 H         1 <0>         0.0839
     61 H18         0.1835   -1.7427    2.1899 H         1 <0>         0.0829
     62 H19         4.8012   -2.4282    3.0834 H         1 <0>         0.0959
     63 H20         5.3736   -2.3667    6.0797 H         1 <0>         0.0769
     64 H21         6.5324   -2.9051    4.8405 H         1 <0>         0.0858
     65 H22         6.3966   -0.6833    3.7481 H         1 <0>         0.0736
     66 H23         5.2378   -0.1448    4.9872 H         1 <0>         0.0768
     67 H24         5.9544    0.2437    7.2727 H         1 <0>         0.1258
     68 H25         7.8166    0.8506    8.7632 H         1 <0>         0.1329
     69 H26         8.7319   -1.0367    4.3005 H         1 <0>         0.1358
     70 H27        10.5907   -1.9933    4.3398 H         1 <0>         0.0578
     71 H28        10.6063   -0.3515    3.6523 H         1 <0>         0.0548
     72 H29        12.1263   -1.1057    4.1899 H         1 <0>         0.1002
     73 H30         9.4405    2.0418    9.3386 H         1 <0>         0.0529
     74 H31         9.4252    0.4003   10.0267 H         1 <0>         0.0539
     75 H32        10.9300    1.3510   10.0261 H         1 <0>         0.0983
     76 H33         2.9217   -3.7818    5.9614 H         1 <0>         0.1201
     77 H34         2.4003   -6.1719    6.2300 H         1 <0>         0.1199
     78 H35         3.3902   -7.8289    4.7022 H         1 <0>         0.1275
     79 H36         5.4169   -4.6914    2.6251 H         1 <0>         0.1285
     80 H37         4.9852   -8.9507    3.9384 H         1 <0>         0.0590
     81 H38         3.5939   -8.7711    2.8427 H         1 <0>         0.0586
@<TRIPOS>BOND
     1    1    2 1
     2    1   46 1
     3    1   47 1
     4    1   48 1
     5    2    3 1
     6    2    4 1
     7    2   10 1
     8    4    9 ar
     9    4    5 ar
    10    5    6 ar
    11    5   49 1
    12    6    7 ar
    13    6   50 1
    14    7    8 ar
    15    7   51 1
    16    8    9 ar
    17    8   52 1
    18    9   53 1
    19   10   11 2
    20   10   12 am
    21   12   17 1
    22   12   13 1
    23   13   14 1
    24   13   54 1
    25   13   55 1
    26   14   15 1
    27   14   56 1
    28   14   57 1
    29   15   16 1
    30   15   58 1
    31   15   59 1
    32   16   17 1
    33   16   60 1
    34   16   61 1
    35   17   18 1
    36   17   19 1
    37   19   20 2
    38   19   21 1
    39   21   22 1
    40   22   23 1
    41   22   35 1
    42   22   62 1
    43   23   24 1
    44   23   63 1
    45   23   64 1
    46   24   25 1
    47   24   65 1
    48   24   66 1
    49   25   30 ar
    50   25   26 ar
    51   26   27 ar
    52   26   67 1
    53   27   28 ar
    54   27   68 1
    55   28   29 ar
    56   28   33 1
    57   29   30 ar
    58   29   31 1
    59   30   69 1
    60   31   32 1
    61   32   70 1
    62   32   71 1
    63   32   72 1
    64   33   34 1
    65   34   73 1
    66   34   74 1
    67   34   75 1
    68   35   40 ar
    69   35   36 ar
    70   36   37 ar
    71   36   76 1
    72   37   38 ar
    73   37   77 1
    74   38   39 ar
    75   38   78 1
    76   39   40 ar
    77   39   41 1
    78   40   79 1
    79   41   42 1
    80   42   43 1
    81   42   80 1
    82   42   81 1
    83   43   44 2
    84   43   45 1
@<TRIPOS>MOLECULE
CHEMBL370367
   58    62     0     0     0
SMALL
USER_CHARGES

@<TRIPOS>ATOM
      1 C1         -0.0560    1.5357    0.2034 C.3       1 <0>         0.0250
      2 O1         -0.0124    0.1094    0.2795 O.3       1 <0>        -0.3097
      3 C2         -1.2019   -0.5454    0.2627 C.ar      1 <0>         0.1801
      4 C3         -1.2369   -1.9330    0.2989 C.ar      1 <0>        -0.1786
      5 C4         -2.4476   -2.5855    0.3285 C.ar      1 <0>         0.0021
      6 C5         -3.6444   -1.8776    0.3488 C.ar      1 <0>        -0.1669
      7 C6         -3.6079   -0.5058    0.1921 C.ar      1 <0>         0.1916
      8 C7         -2.3874    0.1633    0.1752 C.ar      1 <0>        -0.3051
      9 O2         -4.7369    0.2241   -0.0151 O.3       1 <0>        -0.3093
     10 C8         -4.5782    1.6365   -0.1634 C.3       1 <0>         0.0235
     11 C9         -4.9103   -2.6549    0.5799 C.3       1 <0>         0.2047
     12 C10        -6.0382   -1.7767    1.0948 C.3       1 <0>         0.1422
     13 C11        -5.6446   -0.9394    2.3030 C.3       1 <0>        -0.1198
     14 C12        -5.4231   -1.7984    3.5455 C.3       1 <0>        -0.1308
     15 C13        -6.6749   -2.6355    3.8311 C.3       1 <0>        -0.1247
     16 C14        -6.9085   -3.5472    2.6088 C.3       1 <0>         0.1244
     17 N1         -7.1730   -2.6510    1.4653 N.am      1 <0>        -0.6012
     18 C15        -8.3494   -2.6280    0.8081 C.2       1 <0>         0.5073
     19 O3         -8.5403   -1.8077   -0.0658 O.2       1 <0>        -0.4923
     20 C16        -9.4176   -3.6114    1.1550 C.2       1 <0>         0.3990
     21 O4        -10.1862   -3.3769    2.0645 O.2       1 <0>        -0.3988
     22 C17        -9.5388   -4.8665    0.3933 C.ar      1 <0>        -0.1557
     23 C18        -8.5885   -5.1919   -0.5817 C.ar      1 <0>        -0.0460
     24 C19        -8.7073   -6.3674   -1.2901 C.ar      1 <0>        -0.1053
     25 C20        -9.7649   -7.2279   -1.0398 C.ar      1 <0>         0.0058
     26 C21       -10.7107   -6.9126   -0.0754 C.ar      1 <0>        -0.0448
     27 C22       -10.6012   -5.7418    0.6451 C.ar      1 <0>        -0.0302
     28 Cl1       -12.0312   -7.9974    0.2301 Cl        1 <0>        -0.0305
     29 Cl2        -9.9067   -8.7067   -1.9380 Cl        1 <0>        -0.0291
     30 C23        -5.6030   -4.2466    2.3360 C.2       1 <0>         0.5139
     31 O5         -5.3563   -5.2628    2.9514 O.2       1 <0>        -0.5269
     32 N2         -4.6894   -3.8084    1.4468 N.am      1 <0>        -0.5952
     33 C24        -3.4412   -4.5835    1.3980 C.3       1 <0>         0.1186
     34 C25        -2.5119   -4.0902    0.2992 C.3       1 <0>        -0.0931
     35 H1          0.9592    1.9320    0.2262 H         1 <0>         0.1048
     36 H2         -0.5423    1.8354   -0.7249 H         1 <0>         0.0573
     37 H3         -0.6181    1.9278    1.0510 H         1 <0>         0.0571
     38 H4         -0.3170   -2.5005    0.3046 H         1 <0>         0.1381
     39 H5         -2.3697    1.2409    0.0996 H         1 <0>         0.1402
     40 H6         -5.5533    2.0969   -0.3224 H         1 <0>         0.1061
     41 H7         -4.1249    2.0479    0.7385 H         1 <0>         0.0571
     42 H8         -3.9355    1.8420   -1.0194 H         1 <0>         0.0583
     43 H9         -5.2291   -3.0476   -0.3974 H         1 <0>         0.0791
     44 H10        -6.3824   -1.1226    0.2892 H         1 <0>         0.1351
     45 H11        -4.7314   -0.3819    2.1008 H         1 <0>         0.0842
     46 H12        -6.4450   -0.2217    2.5117 H         1 <0>         0.0741
     47 H13        -4.5657   -2.4506    3.3919 H         1 <0>         0.0699
     48 H14        -5.2248   -1.1460    4.3988 H         1 <0>         0.0760
     49 H15        -6.5140   -3.2446    4.7208 H         1 <0>         0.0909
     50 H16        -7.5330   -1.9813    3.9771 H         1 <0>         0.0895
     51 H17        -7.7217   -4.2509    2.7769 H         1 <0>         0.1302
     52 H18        -7.7640   -4.5226   -0.7784 H         1 <0>         0.1430
     53 H19        -7.9748   -6.6191   -2.0427 H         1 <0>         0.1551
     54 H20       -11.3357   -5.4990    1.3987 H         1 <0>         0.1594
     55 H21        -2.9331   -4.5019    2.3595 H         1 <0>         0.0738
     56 H22        -3.6818   -5.6325    1.2155 H         1 <0>         0.0843
     57 H23        -2.8884   -4.4152   -0.6719 H         1 <0>         0.0922
     58 H24        -1.5126   -4.4993    0.4513 H         1 <0>         0.0999
@<TRIPOS>BOND
     1    1    2 1
     2    1   35 1
     3    1   36 1
     4    1   37 1
     5    2    3 1
     6    3    8 ar
     7    3    4 ar
     8    4    5 ar
     9    4   38 1
    10    5   34 1
    11    5    6 ar
    12    6    7 ar
    13    6   11 1
    14    7    8 ar
    15    7    9 1
    16    8   39 1
    17    9   10 1
    18   10   40 1
    19   10   41 1
    20   10   42 1
    21   11   32 1
    22   11   12 1
    23   11   43 1
    24   12   17 1
    25   12   13 1
    26   12   44 1
    27   13   14 1
    28   13   45 1
    29   13   46 1
    30   14   15 1
    31   14   47 1
    32   14   48 1
    33   15   16 1
    34   15   49 1
    35   15   50 1
    36   16   17 1
    37   16   30 1
    38   16   51 1
    39   17   18 am
    40   18   19 2
    41   18   20 1
    42   20   21 2
    43   20   22 1
    44   22   27 ar
    45   22   23 ar
    46   23   24 ar
    47   23   52 1
    48   24   25 ar
    49   24   53 1
    50   25   26 ar
    51   25   29 1
    52   26   27 ar
    53   26   28 1
    54   27   54 1
    55   30   31 2
    56   30   32 am
    57   32   33 1
    58   33   34 1
    59   33   55 1
    60   33   56 1
    61   34   57 1
    62   34   58 1
@<TRIPOS>MOLECULE
CHEMBL370367__1
   58    62     0     0     0
SMALL
USER_CHARGES

@<TRIPOS>ATOM
      1 C1         -0.1156    1.7103    0.1518 C.3       1 <0>         0.0254
      2 O1         -0.0148    0.2850    0.1649 O.3       1 <0>        -0.3115
      3 C2         -1.1788   -0.4161    0.1428 C.ar      1 <0>         0.1752
      4 C3         -1.1558   -1.8008    0.1595 C.ar      1 <0>        -0.1886
      5 C4         -2.3379   -2.5284    0.1334 C.ar      1 <0>         0.0085
      6 C5         -3.5443   -1.8635    0.0830 C.ar      1 <0>        -0.1686
      7 C6         -3.5715   -0.4715    0.0746 C.ar      1 <0>         0.1810
      8 C7         -2.3924    0.2528    0.1093 C.ar      1 <0>        -0.2926
      9 O2         -4.7634    0.1803    0.0373 O.3       1 <0>        -0.3038
     10 C8         -4.7217    1.6087    0.0307 C.3       1 <0>         0.0197
     11 C9         -4.8541   -2.6021    0.0188 C.3       1 <0>         0.1975
     12 C10        -5.9085   -1.9161    0.8693 C.3       1 <0>         0.1165
     13 C11        -7.2591   -1.9591    0.1426 C.3       1 <0>        -0.1268
     14 C12        -7.6803   -3.4180   -0.0476 C.3       1 <0>        -0.1308
     15 C13        -7.8085   -4.1015    1.3152 C.3       1 <0>        -0.1259
     16 C14        -6.4579   -4.0480    2.0392 C.3       1 <0>         0.1200
     17 N1         -6.0579   -2.6281    2.1508 N.am      1 <0>        -0.5917
     18 C15        -5.8451   -2.0289    3.3391 C.2       1 <0>         0.5066
     19 O3         -5.4302   -0.8891    3.3783 O.2       1 <0>        -0.4942
     20 C16        -6.1196   -2.7673    4.6072 C.2       1 <0>         0.3984
     21 O4         -7.2455   -2.7994    5.0592 O.2       1 <0>        -0.3994
     22 C17        -5.0238   -3.4570    5.3100 C.ar      1 <0>        -0.1583
     23 C18        -3.7063   -3.3300    4.8543 C.ar      1 <0>        -0.0445
     24 C19        -2.6862   -3.9772    5.5164 C.ar      1 <0>        -0.1057
     25 C20        -2.9613   -4.7532    6.6316 C.ar      1 <0>         0.0064
     26 C21        -4.2642   -4.8840    7.0893 C.ar      1 <0>        -0.0450
     27 C22        -5.2945   -4.2375    6.4395 C.ar      1 <0>        -0.0309
     28 Cl1        -4.5975   -5.8582    8.4869 Cl        1 <0>        -0.0307
     29 Cl2        -1.6693   -5.5654    7.4589 Cl        1 <0>        -0.0292
     30 C23        -5.4147   -4.7184    1.1772 C.2       1 <0>         0.5230
     31 O5         -5.2574   -5.9184    1.2556 O.2       1 <0>        -0.5261
     32 N2         -4.6600   -4.0083    0.3265 N.am      1 <0>        -0.5934
     33 C24        -3.5230   -4.6826   -0.3362 C.3       1 <0>         0.1034
     34 C25        -2.2379   -4.0305    0.1708 C.3       1 <0>        -0.0981
     35 H1          0.8836    2.1454    0.1720 H         1 <0>         0.1040
     36 H2         -0.6327    2.0297   -0.7530 H         1 <0>         0.0566
     37 H3         -0.6745    2.0431    1.0264 H         1 <0>         0.0569
     38 H4         -0.2092   -2.3196    0.1927 H         1 <0>         0.1345
     39 H5         -2.4177    1.3325    0.1062 H         1 <0>         0.1389
     40 H6         -5.7380    2.0017   -0.0002 H         1 <0>         0.1050
     41 H7         -4.2229    1.9618    0.9332 H         1 <0>         0.0594
     42 H8         -4.1726    1.9521   -0.8460 H         1 <0>         0.0581
     43 H9         -5.2008   -2.5454   -1.0131 H         1 <0>         0.0893
     44 H10        -5.6140   -0.8834    1.0559 H         1 <0>         0.1599
     45 H11        -8.0094   -1.4377    0.7370 H         1 <0>         0.0790
     46 H12        -7.1646   -1.4773   -0.8306 H         1 <0>         0.0873
     47 H13        -8.6402   -3.4539   -0.5628 H         1 <0>         0.0802
     48 H14        -6.9301   -3.9370   -0.6443 H         1 <0>         0.0685
     49 H15        -8.5614   -3.5859    1.9114 H         1 <0>         0.0881
     50 H16        -8.1047   -5.1410    1.1744 H         1 <0>         0.0911
     51 H17        -6.5248   -4.5129    3.0228 H         1 <0>         0.1245
     52 H18        -3.4901   -2.7262    3.9854 H         1 <0>         0.1441
     53 H19        -1.6695   -3.8801    5.1653 H         1 <0>         0.1544
     54 H20        -6.3081   -4.3365    6.7989 H         1 <0>         0.1590
     55 H21        -3.5239   -5.7429   -0.0837 H         1 <0>         0.1092
     56 H22        -3.5988   -4.5591   -1.4166 H         1 <0>         0.0819
     57 H23        -1.4046   -4.3488   -0.4555 H         1 <0>         0.0971
     58 H24        -2.0554   -4.3509    1.1966 H         1 <0>         0.0871
@<TRIPOS>BOND
     1    1    2 1
     2    1   35 1
     3    1   36 1
     4    1   37 1
     5    2    3 1
     6    3    8 ar
     7    3    4 ar
     8    4    5 ar
     9    4   38 1
    10    5   34 1
    11    5    6 ar
    12    6    7 ar
    13    6   11 1
    14    7    8 ar
    15    7    9 1
    16    8   39 1
    17    9   10 1
    18   10   40 1
    19   10   41 1
    20   10   42 1
    21   11   32 1
    22   11   12 1
    23   11   43 1
    24   12   17 1
    25   12   13 1
    26   12   44 1
    27   13   14 1
    28   13   45 1
    29   13   46 1
    30   14   15 1
    31   14   47 1
    32   14   48 1
    33   15   16 1
    34   15   49 1
    35   15   50 1
    36   16   17 1
    37   16   30 1
    38   16   51 1
    39   17   18 am
    40   18   19 2
    41   18   20 1
    42   20   21 2
    43   20   22 1
    44   22   27 ar
    45   22   23 ar
    46   23   24 ar
    47   23   52 1
    48   24   25 ar
    49   24   53 1
    50   25   26 ar
    51   25   29 1
    52   26   27 ar
    53   26   28 1
    54   27   54 1
    55   30   31 2
    56   30   32 am
    57   32   33 1
    58   33   34 1
    59   33   55 1
    60   33   56 1
    61   34   57 1
    62   34   58 1
@<TRIPOS>MOLECULE
CHEMBL370367__2
   58    62     0     0     0
SMALL
USER_CHARGES

@<TRIPOS>ATOM
      1 C1          0.0577    1.0272    0.2618 C.3       1 <0>         0.0253
      2 O1         -0.0232   -0.3995    0.2597 O.3       1 <0>        -0.3112
      3 C2         -1.2662   -0.9470    0.2150 C.ar      1 <0>         0.1759
      4 C3         -1.4196   -2.3234    0.2160 C.ar      1 <0>        -0.1886
      5 C4         -2.6841   -2.8949    0.1735 C.ar      1 <0>         0.0082
      6 C5         -3.7967   -2.0820    0.1371 C.ar      1 <0>        -0.1700
      7 C6         -3.6464   -0.6977    0.1285 C.ar      1 <0>         0.1799
      8 C7         -2.3850   -0.1295    0.1741 C.ar      1 <0>        -0.2930
      9 O2         -4.7452    0.1004    0.0807 O.3       1 <0>        -0.3037
     10 C8         -4.5220    1.5119    0.0745 C.3       1 <0>         0.0199
     11 C9         -5.1914   -2.6471    0.1222 C.3       1 <0>         0.1972
     12 C10        -6.0904   -1.8532   -0.8093 C.3       1 <0>         0.1173
     13 C11        -7.4792   -1.7032   -0.1747 C.3       1 <0>        -0.1263
     14 C12        -8.0983   -3.0901    0.0122 C.3       1 <0>        -0.1308
     15 C13        -8.2259   -3.7869   -1.3440 C.3       1 <0>        -0.1247
     16 C14        -6.8362   -3.9261   -1.9763 C.3       1 <0>         0.1196
     17 N1         -6.2484   -2.5729   -2.0855 N.am      1 <0>        -0.5930
     18 C15        -5.8841   -2.0367   -3.2672 C.2       1 <0>         0.5068
     19 O3         -5.4916   -0.8894   -3.3177 O.2       1 <0>        -0.4933
     20 C16        -5.9634   -2.8541   -4.5138 C.2       1 <0>         0.3981
     21 O4         -7.0082   -2.9255   -5.1272 O.2       1 <0>        -0.4005
     22 C17        -4.7734   -3.5740   -4.9995 C.ar      1 <0>        -0.1559
     23 C18        -3.5989   -3.5854   -4.2379 C.ar      1 <0>        -0.0446
     24 C19        -2.4898   -4.2609   -4.6977 C.ar      1 <0>        -0.1052
     25 C20        -2.5343   -4.9287   -5.9115 C.ar      1 <0>         0.0065
     26 C21        -3.6942   -4.9221   -6.6721 C.ar      1 <0>        -0.0449
     27 C22        -4.8137   -4.2544   -6.2216 C.ar      1 <0>        -0.0303
     28 Cl1        -3.7390   -5.7617   -8.1909 Cl        1 <0>        -0.0306
     29 Cl2        -1.1314   -5.7767   -6.4829 Cl        1 <0>        -0.0291
     30 C23        -5.9462   -4.7027   -1.0355 C.2       1 <0>         0.5221
     31 O5         -5.9425   -5.9146   -1.0814 O.2       1 <0>        -0.5255
     32 N2         -5.1601   -4.0734   -0.1501 N.am      1 <0>        -0.5940
     33 C24        -4.1613   -4.8703    0.5943 C.3       1 <0>         0.1032
     34 C25        -2.7746   -4.3981    0.1607 C.3       1 <0>        -0.0984
     35 H1          1.1036    1.3318    0.2994 H         1 <0>         0.1042
     36 H2         -0.4023    1.4185   -0.6456 H         1 <0>         0.0569
     37 H3         -0.4666    1.4195    1.1332 H         1 <0>         0.0567
     38 H4         -0.5467   -2.9586    0.2498 H         1 <0>         0.1348
     39 H5         -2.2729    0.9447    0.1738 H         1 <0>         0.1390
     40 H6         -5.4796    2.0310    0.0345 H         1 <0>         0.1054
     41 H7         -3.9902    1.7996    0.9814 H         1 <0>         0.0582
     42 H8         -3.9259    1.7816   -0.7973 H         1 <0>         0.0593
     43 H9         -5.5957   -2.5222    1.1267 H         1 <0>         0.0900
     44 H10        -5.6524   -0.8722   -0.9934 H         1 <0>         0.1589
     45 H11        -7.3860   -1.2123    0.7940 H         1 <0>         0.0869
     46 H12        -8.1153   -1.1053   -0.8275 H         1 <0>         0.0792
     47 H13        -7.4623   -3.6857    0.6671 H         1 <0>         0.0684
     48 H14        -9.0860   -2.9886    0.4618 H         1 <0>         0.0802
     49 H15        -8.6631   -4.7756   -1.2052 H         1 <0>         0.0912
     50 H16        -8.8655   -3.1946   -1.9984 H         1 <0>         0.0879
     51 H17        -6.8996   -4.4038   -2.9540 H         1 <0>         0.1254
     52 H18        -3.5623   -3.0654   -3.2921 H         1 <0>         0.1418
     53 H19        -1.5831   -4.2699   -4.1109 H         1 <0>         0.1542
     54 H20        -5.7178   -4.2532   -6.8125 H         1 <0>         0.1592
     55 H21        -4.2870   -4.7129    1.6655 H         1 <0>         0.0819
     56 H22        -4.2821   -5.9276    0.3586 H         1 <0>         0.1092
     57 H23        -2.5729   -4.7597   -0.8476 H         1 <0>         0.0871
     58 H24        -2.0285   -4.8069    0.8420 H         1 <0>         0.0975
@<TRIPOS>BOND
     1    1    2 1
     2    1   35 1
     3    1   36 1
     4    1   37 1
     5    2    3 1
     6    3    8 ar
     7    3    4 ar
     8    4    5 ar
     9    4   38 1
    10    5   34 1
    11    5    6 ar
    12    6    7 ar
    13    6   11 1
    14    7    8 ar
    15    7    9 1
    16    8   39 1
    17    9   10 1
    18   10   40 1
    19   10   41 1
    20   10   42 1
    21   11   32 1
    22   11   12 1
    23   11   43 1
    24   12   17 1
    25   12   13 1
    26   12   44 1
    27   13   14 1
    28   13   45 1
    29   13   46 1
    30   14   15 1
    31   14   47 1
    32   14   48 1
    33   15   16 1
    34   15   49 1
    35   15   50 1
    36   16   17 1
    37   16   30 1
    38   16   51 1
    39   17   18 am
    40   18   19 2
    41   18   20 1
    42   20   21 2
    43   20   22 1
    44   22   27 ar
    45   22   23 ar
    46   23   24 ar
    47   23   52 1
    48   24   25 ar
    49   24   53 1
    50   25   26 ar
    51   25   29 1
    52   26   27 ar
    53   26   28 1
    54   27   54 1
    55   30   31 2
    56   30   32 am
    57   32   33 1
    58   33   34 1
    59   33   55 1
    60   33   56 1
    61   34   57 1
    62   34   58 1
@<TRIPOS>MOLECULE
CHEMBL370367__3
   58    62     0     0     0
SMALL
USER_CHARGES

@<TRIPOS>ATOM
      1 C1          0.0408    1.2896    0.1199 C.3       1 <0>         0.0250
      2 O1          0.0313   -0.1373    0.1981 O.3       1 <0>        -0.3096
      3 C2         -1.1819   -0.7468    0.1934 C.ar      1 <0>         0.1800
      4 C3         -1.2726   -2.1281    0.2968 C.ar      1 <0>        -0.1791
      5 C4         -2.5061   -2.7387    0.2578 C.ar      1 <0>         0.0019
      6 C5         -3.6709   -1.9982    0.0901 C.ar      1 <0>        -0.1644
      7 C6         -3.5835   -0.6189    0.0797 C.ar      1 <0>         0.1909
      8 C7         -2.3408    0.0058    0.1155 C.ar      1 <0>        -0.3052
      9 O2         -4.6886    0.1732    0.0919 O.3       1 <0>        -0.3094
     10 C8         -4.4744    1.5860    0.0792 C.3       1 <0>         0.0234
     11 C9         -4.9586   -2.7488   -0.0912 C.3       1 <0>         0.2038
     12 C10        -6.0299   -1.9067   -0.7651 C.3       1 <0>         0.1421
     13 C11        -5.5674   -1.2990   -2.0795 C.3       1 <0>        -0.1188
     14 C12        -5.4131   -2.3437   -3.1829 C.3       1 <0>        -0.1303
     15 C13        -6.7107   -3.1427   -3.3400 C.3       1 <0>        -0.1259
     16 C14        -6.9755   -3.8504   -1.9942 C.3       1 <0>         0.1241
     17 N1         -7.2042   -2.7733   -1.0083 N.am      1 <0>        -0.6002
     18 C15        -8.3823   -2.5886   -0.3827 C.2       1 <0>         0.5075
     19 O3         -8.4845   -1.7424    0.4813 O.2       1 <0>        -0.4944
     20 C16        -9.5626   -3.4246   -0.7520 C.2       1 <0>         0.3993
     21 O4        -10.2584   -3.1094   -1.6952 O.2       1 <0>        -0.3978
     22 C17        -9.8830   -4.6323    0.0285 C.ar      1 <0>        -0.1582
     23 C18        -9.1519   -4.9382    1.1824 C.ar      1 <0>        -0.0458
     24 C19        -9.4569   -6.0688    1.9080 C.ar      1 <0>        -0.1058
     25 C20       -10.4851   -6.9034    1.4983 C.ar      1 <0>         0.0058
     26 C21       -11.2141   -6.6072    0.3560 C.ar      1 <0>        -0.0451
     27 C22       -10.9232   -5.4759   -0.3770 C.ar      1 <0>        -0.0309
     28 Cl1       -12.4997   -7.6592   -0.1481 Cl        1 <0>        -0.0307
     29 Cl2       -10.8617   -8.3262    2.4188 Cl        1 <0>        -0.0292
     30 C23        -5.6931   -4.5450   -1.6140 C.2       1 <0>         0.5150
     31 O5         -5.4805   -5.6474   -2.0777 O.2       1 <0>        -0.5284
     32 N2         -4.7662   -4.0158   -0.7911 N.am      1 <0>        -0.5943
     33 C24        -3.5359   -4.8051   -0.6379 C.3       1 <0>         0.1181
     34 C25        -2.6228   -4.2301    0.4340 C.3       1 <0>        -0.0931
     35 H1          1.0704    1.6473    0.1326 H         1 <0>         0.1048
     36 H2         -0.4424    1.6060   -0.8045 H         1 <0>         0.0571
     37 H3         -0.4983    1.7037    0.9719 H         1 <0>         0.0573
     38 H4         -0.3787   -2.7247    0.4057 H         1 <0>         0.1380
     39 H5         -2.2841    1.0841    0.0833 H         1 <0>         0.1403
     40 H6         -5.4358    2.0994    0.0910 H         1 <0>         0.1059
     41 H7         -3.8980    1.8740    0.9584 H         1 <0>         0.0583
     42 H8         -3.9259    1.8623   -0.8213 H         1 <0>         0.0574
     43 H9         -5.3328   -2.9971    0.9150 H         1 <0>         0.0800
     44 H10        -6.3518   -1.1159   -0.0837 H         1 <0>         0.1356
     45 H11        -6.2940   -0.5484   -2.4048 H         1 <0>         0.0745
     46 H12        -4.6041   -0.8028   -1.9443 H         1 <0>         0.0836
     47 H13        -5.1913   -1.8381   -4.1268 H         1 <0>         0.0761
     48 H14        -4.5907   -3.0152   -2.9435 H         1 <0>         0.0695
     49 H15        -7.5362   -2.4706   -3.5726 H         1 <0>         0.0896
     50 H16        -6.5984   -3.8847   -4.1309 H         1 <0>         0.0910
     51 H17        -7.8140   -4.5400   -2.0537 H         1 <0>         0.1300
     52 H18        -8.3503   -4.2894    1.5030 H         1 <0>         0.1455
     53 H19        -8.8932   -6.3058    2.7982 H         1 <0>         0.1552
     54 H20       -11.4940   -5.2438   -1.2640 H         1 <0>         0.1592
     55 H21        -3.8034   -5.8277   -0.3646 H         1 <0>         0.0858
     56 H22        -3.0040   -4.8264   -1.5895 H         1 <0>         0.0726
     57 H23        -1.6341   -4.6819    0.3525 H         1 <0>         0.1000
     58 H24        -3.0350   -4.4452    1.4213 H         1 <0>         0.0925
@<TRIPOS>BOND
     1    1    2 1
     2    1   35 1
     3    1   36 1
     4    1   37 1
     5    2    3 1
     6    3    8 ar
     7    3    4 ar
     8    4    5 ar
     9    4   38 1
    10    5   34 1
    11    5    6 ar
    12    6    7 ar
    13    6   11 1
    14    7    8 ar
    15    7    9 1
    16    8   39 1
    17    9   10 1
    18   10   40 1
    19   10   41 1
    20   10   42 1
    21   11   32 1
    22   11   12 1
    23   11   43 1
    24   12   17 1
    25   12   13 1
    26   12   44 1
    27   13   14 1
    28   13   45 1
    29   13   46 1
    30   14   15 1
    31   14   47 1
    32   14   48 1
    33   15   16 1
    34   15   49 1
    35   15   50 1
    36   16   17 1
    37   16   30 1
    38   16   51 1
    39   17   18 am
    40   18   19 2
    41   18   20 1
    42   20   21 2
    43   20   22 1
    44   22   27 ar
    45   22   23 ar
    46   23   24 ar
    47   23   52 1
    48   24   25 ar
    49   24   53 1
    50   25   26 ar
    51   25   29 1
    52   26   27 ar
    53   26   28 1
    54   27   54 1
    55   30   31 2
    56   30   32 am
    57   32   33 1
    58   33   34 1
    59   33   55 1
    60   33   56 1
    61   34   57 1
    62   34   58 1
@<TRIPOS>MOLECULE
CHEMBL118884
   65    67     0     0     0
SMALL
USER_CHARGES

@<TRIPOS>ATOM
      1 C1          0.0889    2.7407   -0.8927 C.3       1 <0>        -0.1555
      2 C2          0.6499    1.3217   -0.7807 C.3       1 <0>        -0.1076
      3 C3          1.1708    0.8700   -2.1466 C.3       1 <0>        -0.0876
      4 C4          0.0251    0.8869   -3.1604 C.3       1 <0>        -0.1453
      5 C5          2.2765    1.8204   -2.6105 C.3       1 <0>        -0.1459
      6 C6          1.7234   -0.5277   -2.0363 C.2       1 <0>         0.3674
      7 O1          1.7027   -1.1033   -0.9746 O.2       1 <0>        -0.4140
      8 C7          2.2956   -1.2000   -3.2376 C.2       1 <0>         0.4973
      9 O2          2.3164   -0.6217   -4.3045 O.2       1 <0>        -0.4917
     10 N1          2.7898   -2.4500   -3.1390 N.am      1 <0>        -0.5850
     11 C8          2.8217   -3.2670   -1.9122 C.3       1 <0>         0.0941
     12 C9          2.8739   -4.7321   -2.4127 C.3       1 <0>        -0.1368
     13 C10         3.7824   -4.6017   -3.6637 C.3       1 <0>        -0.1231
     14 C11         3.3805   -3.2271   -4.2384 C.3       1 <0>         0.1104
     15 H1          4.2633   -2.7153   -4.6216 H         1 <0>         0.1161
     16 C12         2.3690   -3.4057   -5.3411 C.2       1 <0>         0.2974
     17 O3          1.2578   -2.9320   -5.2275 O.2       1 <0>        -0.4347
     18 S1          2.7751   -4.2504   -6.7112 S.3       1 <0>        -0.0990
     19 C13         1.2696   -4.1974   -7.7218 C.3       1 <0>        -0.0957
     20 C14         1.5085   -4.9495   -9.0326 C.3       1 <0>        -0.0936
     21 C15         0.2387   -4.9048   -9.8850 C.3       1 <0>        -0.0016
     22 C16         0.5108   -5.5380  -11.2252 C.ar      1 <0>        -0.0730
     23 C17         0.2089   -4.8530  -12.3873 C.ar      1 <0>        -0.1128
     24 C18         0.4585   -5.4337  -13.6166 C.ar      1 <0>        -0.1170
     25 C19         1.0105   -6.6993  -13.6838 C.ar      1 <0>        -0.1210
     26 C20         1.3132   -7.3840  -12.5217 C.ar      1 <0>        -0.1172
     27 C21         1.0676   -6.8015  -11.2924 C.ar      1 <0>        -0.1130
     28 C22        -0.8621   -5.6608   -9.1865 C.ar      1 <0>        -0.0748
     29 C23        -0.6417   -6.9523   -8.7457 C.ar      1 <0>        -0.1142
     30 C24        -1.6514   -7.6457   -8.1050 C.ar      1 <0>        -0.1171
     31 C25        -2.8814   -7.0474   -7.9047 C.ar      1 <0>        -0.1216
     32 C26        -3.1015   -5.7555   -8.3446 C.ar      1 <0>        -0.1164
     33 C27        -2.0904   -5.0606   -8.9815 C.ar      1 <0>        -0.1137
     34 H2          0.8766    3.4178   -1.2232 H         1 <0>         0.0601
     35 H3         -0.7273    2.7528   -1.6150 H         1 <0>         0.0599
     36 H4         -0.2822    3.0626    0.0803 H         1 <0>         0.0583
     37 H5          1.4662    1.3097   -0.0584 H         1 <0>         0.0688
     38 H6         -0.1377    0.6446   -0.4502 H         1 <0>         0.0683
     39 H7         -0.3746    1.8978   -3.2402 H         1 <0>         0.0747
     40 H8          0.3962    0.5651   -4.1335 H         1 <0>         0.0783
     41 H9         -0.7626    0.2098   -2.8299 H         1 <0>         0.0552
     42 H10         3.0927    1.8083   -1.8882 H         1 <0>         0.0562
     43 H11         2.6476    1.4985   -3.5836 H         1 <0>         0.0776
     44 H12         1.8768    2.8313   -2.6903 H         1 <0>         0.0756
     45 H13         3.7101   -3.0349   -1.3249 H         1 <0>         0.0800
     46 H14         1.9210   -3.0998   -1.3215 H         1 <0>         0.0981
     47 H15         3.3280   -5.3840   -1.6664 H         1 <0>         0.0965
     48 H16         1.8804   -5.0870   -2.6866 H         1 <0>         0.0777
     49 H17         4.8346   -4.6121   -3.3790 H         1 <0>         0.0972
     50 H18         3.5679   -5.3944   -4.3804 H         1 <0>         0.0972
     51 H19         0.4500   -4.6668   -7.1777 H         1 <0>         0.0977
     52 H20         1.0144   -3.1603   -7.9393 H         1 <0>         0.0958
     53 H21         2.3281   -4.4801   -9.5766 H         1 <0>         0.0840
     54 H22         1.7637   -5.9867   -8.8150 H         1 <0>         0.0809
     55 H23        -0.0665   -3.8683  -10.0281 H         1 <0>         0.0905
     56 H24        -0.2223   -3.8642  -12.3347 H         1 <0>         0.1215
     57 H25         0.2220   -4.8988  -14.5245 H         1 <0>         0.1225
     58 H26         1.2048   -7.1534  -14.6443 H         1 <0>         0.1215
     59 H27         1.7441   -8.3729  -12.5743 H         1 <0>         0.1223
     60 H28         1.3075   -7.3349  -10.3845 H         1 <0>         0.1219
     61 H29         0.3193   -7.4197   -8.9022 H         1 <0>         0.1223
     62 H30        -1.4795   -8.6550   -7.7613 H         1 <0>         0.1220
     63 H31        -3.6705   -7.5894   -7.4047 H         1 <0>         0.1211
     64 H32        -4.0625   -5.2882   -8.1884 H         1 <0>         0.1219
     65 H33        -2.2611   -4.0500   -9.3220 H         1 <0>         0.1209
@<TRIPOS>BOND
     1    1    2 1
     2    1   34 1
     3    1   35 1
     4    1   36 1
     5    2    3 1
     6    2   37 1
     7    2   38 1
     8    3    4 1
     9    3    5 1
    10    3    6 1
    11    4   39 1
    12    4   40 1
    13    4   41 1
    14    5   42 1
    15    5   43 1
    16    5   44 1
    17    6    7 2
    18    6    8 1
    19    8    9 2
    20    8   10 am
    21   10   14 1
    22   10   11 1
    23   11   12 1
    24   11   45 1
    25   11   46 1
    26   12   13 1
    27   12   47 1
    28   12   48 1
    29   13   14 1
    30   13   49 1
    31   13   50 1
    32   14   15 1
    33   14   16 1
    34   16   17 2
    35   16   18 1
    36   18   19 1
    37   19   20 1
    38   19   51 1
    39   19   52 1
    40   20   21 1
    41   20   53 1
    42   20   54 1
    43   21   22 1
    44   21   28 1
    45   21   55 1
    46   22   27 ar
    47   22   23 ar
    48   23   24 ar
    49   23   56 1
    50   24   25 ar
    51   24   57 1
    52   25   26 ar
    53   25   58 1
    54   26   27 ar
    55   26   59 1
    56   27   60 1
    57   28   33 ar
    58   28   29 ar
    59   29   30 ar
    60   29   61 1
    61   30   31 ar
    62   30   62 1
    63   31   32 ar
    64   31   63 1
    65   32   33 ar
    66   32   64 1
    67   33   65 1
@<TRIPOS>MOLECULE
CHEMBL118937
   61    63     0     0     0
SMALL
USER_CHARGES

@<TRIPOS>ATOM
      1 C1         -0.0187    1.5258    0.0104 C.3       1 <0>        -0.1555
      2 C2          0.0021   -0.0041    0.0020 C.3       1 <0>        -0.1076
      3 C3          0.7182   -0.4975   -1.2568 C.3       1 <0>        -0.0876
      4 C4         -0.0218    0.0093   -2.4963 C.3       1 <0>        -0.1454
      5 C5          2.1536    0.0321   -1.2676 C.3       1 <0>        -0.1460
      6 C6          0.7386   -2.0043   -1.2651 C.2       1 <0>         0.3674
      7 O1          0.2326   -2.6202   -0.3576 O.2       1 <0>        -0.4139
      8 C7          1.3836   -2.7349   -2.3934 C.2       1 <0>         0.4973
      9 O2          1.8921   -2.1161   -3.3052 O.2       1 <0>        -0.4918
     10 N1          1.4018   -4.0825   -2.4008 N.am      1 <0>        -0.5853
     11 C8          0.8189   -4.9554   -1.3656 C.3       1 <0>         0.0940
     12 C9          0.5402   -6.2967   -2.0888 C.3       1 <0>        -0.1367
     13 C10         1.7600   -6.3955   -3.0427 C.3       1 <0>        -0.1231
     14 C11         2.0009   -4.9256   -3.4458 C.3       1 <0>         0.1102
     15 H1          3.0715   -4.7316   -3.5101 H         1 <0>         0.1163
     16 C12         1.3449   -4.6411   -4.7724 C.2       1 <0>         0.2969
     17 O3          0.4602   -3.8142   -4.8467 O.2       1 <0>        -0.4363
     18 S1          1.8328   -5.4592   -6.1319 S.3       1 <0>        -0.0979
     19 C13         0.7785   -4.7911   -7.4481 C.3       1 <0>        -0.0982
     20 C14         1.1280   -5.4684   -8.7748 C.3       1 <0>        -0.0980
     21 C15         0.2387   -4.9048   -9.8850 C.3       1 <0>        -0.0764
     22 C16         0.5830   -5.5719  -11.1917 C.ar      1 <0>        -0.0785
     23 C17         1.5680   -5.0173  -12.0070 C.ar      1 <0>        -0.1109
     24 C18         1.9026   -5.5944  -13.1932 C.ar      1 <0>        -0.1029
     25 C19         1.2474   -6.7675  -13.6051 C.ar      1 <0>        -0.0546
     26 C20         1.5661   -7.3923  -14.8229 C.ar      1 <0>        -0.1061
     27 C21         0.9108   -8.5276  -15.1890 C.ar      1 <0>        -0.1173
     28 C22        -0.0739   -9.0824  -14.3735 C.ar      1 <0>        -0.1155
     29 C23        -0.4088   -8.5050  -13.1875 C.ar      1 <0>        -0.1077
     30 C24         0.2462   -7.3317  -12.7759 C.ar      1 <0>        -0.0494
     31 C25        -0.0686   -6.7100  -11.5553 C.ar      1 <0>        -0.1029
     32 H2          1.0039    1.9031    0.0027 H         1 <0>         0.0601
     33 H3         -0.5459    1.8868   -0.8726 H         1 <0>         0.0599
     34 H4         -0.5289    1.8773    0.9072 H         1 <0>         0.0583
     35 H5          0.5293   -0.3651    0.8851 H         1 <0>         0.0688
     36 H6         -1.0205   -0.3814    0.0098 H         1 <0>         0.0684
     37 H7         -0.0366    1.0992   -2.4903 H         1 <0>         0.0748
     38 H8          0.4884   -0.3422   -3.3931 H         1 <0>         0.0783
     39 H9         -1.0444   -0.3679   -2.4886 H         1 <0>         0.0553
     40 H10         2.6808   -0.3290   -0.3846 H         1 <0>         0.0562
     41 H11         2.6638   -0.3194   -2.1644 H         1 <0>         0.0776
     42 H12         2.1388    1.1220   -1.2617 H         1 <0>         0.0757
     43 H13         1.5279   -5.1037   -0.5511 H         1 <0>         0.0801
     44 H14        -0.1100   -4.5279   -0.9880 H         1 <0>         0.0983
     45 H15         0.5286   -7.1265   -1.3821 H         1 <0>         0.0966
     46 H16        -0.3926   -6.2511   -2.6508 H         1 <0>         0.0777
     47 H17         2.6258   -6.8030   -2.5206 H         1 <0>         0.0973
     48 H18         1.5172   -6.9982   -3.9179 H         1 <0>         0.0973
     49 H19        -0.2675   -4.9813   -7.2076 H         1 <0>         0.0954
     50 H20         0.9419   -3.7169   -7.5345 H         1 <0>         0.0968
     51 H21         2.1740   -5.2782   -9.0153 H         1 <0>         0.0790
     52 H22         0.9646   -6.5426   -8.6884 H         1 <0>         0.0783
     53 H23        -0.8072   -5.0950   -9.6444 H         1 <0>         0.0771
     54 H24         0.4022   -3.8306   -9.9713 H         1 <0>         0.0781
     55 H25         2.0731   -4.1158  -11.6928 H         1 <0>         0.1236
     56 H26         2.6674   -5.1529  -13.8150 H         1 <0>         0.1278
     57 H27         2.3267   -6.9735  -15.4652 H         1 <0>         0.1269
     58 H28         1.1574   -9.0055  -16.1255 H         1 <0>         0.1233
     59 H29        -0.5790   -9.9838  -14.6876 H         1 <0>         0.1233
     60 H30        -1.1741   -8.9460  -12.5660 H         1 <0>         0.1266
     61 H31        -0.8263   -7.1311  -10.9112 H         1 <0>         0.1266
@<TRIPOS>BOND
     1    1    2 1
     2    1   32 1
     3    1   33 1
     4    1   34 1
     5    2    3 1
     6    2   35 1
     7    2   36 1
     8    3    4 1
     9    3    5 1
    10    3    6 1
    11    4   37 1
    12    4   38 1
    13    4   39 1
    14    5   40 1
    15    5   41 1
    16    5   42 1
    17    6    7 2
    18    6    8 1
    19    8    9 2
    20    8   10 am
    21   10   14 1
    22   10   11 1
    23   11   12 1
    24   11   43 1
    25   11   44 1
    26   12   13 1
    27   12   45 1
    28   12   46 1
    29   13   14 1
    30   13   47 1
    31   13   48 1
    32   14   15 1
    33   14   16 1
    34   16   17 2
    35   16   18 1
    36   18   19 1
    37   19   20 1
    38   19   49 1
    39   19   50 1
    40   20   21 1
    41   20   51 1
    42   20   52 1
    43   21   22 1
    44   21   53 1
    45   21   54 1
    46   22   31 ar
    47   22   23 ar
    48   23   24 ar
    49   23   55 1
    50   24   25 ar
    51   24   56 1
    52   25   30 ar
    53   25   26 ar
    54   26   27 ar
    55   26   57 1
    56   27   28 ar
    57   27   58 1
    58   28   29 ar
    59   28   59 1
    60   29   30 ar
    61   29   60 1
    62   30   31 ar
    63   31   61 1
@<TRIPOS>MOLECULE
CHEMBL202000
   74    79     0     0     0
SMALL
USER_CHARGES

@<TRIPOS>ATOM
      1 C1          0.1182    1.9714    0.6556 C.3       1 <0>        -0.1159
      2 C2         -0.0504    0.5411    0.2119 C.ar      1 <0>        -0.0755
      3 C3         -0.1643    0.2429   -1.1320 C.ar      1 <0>        -0.1137
      4 C4         -0.3195   -1.0690   -1.5398 C.ar      1 <0>        -0.1081
      5 C5         -0.3612   -2.0868   -0.6042 C.ar      1 <0>        -0.1178
      6 C6         -0.2478   -1.7952    0.7408 C.ar      1 <0>        -0.0969
      7 C7         -0.0856   -0.4789    1.1533 C.ar      1 <0>         0.1558
      8 N1          0.0353   -0.1805    2.5161 N.am      1 <0>        -0.5391
      9 C8          1.3001   -0.1480    3.1161 C.ar      1 <0>         0.1351
     10 C9          2.1774    0.8913    2.8347 C.ar      1 <0>        -0.1479
     11 C10         3.4238    0.9208    3.4284 C.ar      1 <0>        -0.1060
     12 C11         3.7989   -0.0833    4.3024 C.ar      1 <0>        -0.0980
     13 C12         2.9279   -1.1193    4.5847 C.ar      1 <0>        -0.0710
     14 C13         1.6777   -1.1517    3.9981 C.ar      1 <0>        -0.0948
     15 C14         0.7268   -2.2782    4.3107 C.3       1 <0>        -0.1168
     16 C15        -1.0656    0.0754    3.2502 C.2       1 <0>         0.7274
     17 O1         -2.1693   -0.1230    2.7803 O.2       1 <0>        -0.5591
     18 N2         -0.9431    0.5512    4.5052 N.am      1 <0>        -0.6139
     19 C16        -2.0632    0.5512    5.4630 C.3       1 <0>         0.1380
     20 C17        -2.3349    2.0054    5.8714 C.3       1 <0>        -0.1249
     21 C18        -1.0601    2.6030    6.4713 C.3       1 <0>        -0.1291
     22 C19         0.0665    2.5637    5.4370 C.3       1 <0>        -0.1230
     23 C20         0.3272    1.1057    5.0227 C.3       1 <0>         0.0703
     24 C21         0.6755    0.2977    6.2497 C.2       1 <0>         0.5279
     25 O2          1.8282    0.2460    6.6231 O.2       1 <0>        -0.5269
     26 N3         -0.2699   -0.3631    6.9330 N.am      1 <0>        -0.5928
     27 C22        -1.6904   -0.2568    6.6929 C.3       1 <0>         0.1963
     28 C23        -2.3203   -1.6227    6.6588 C.ar      1 <0>        -0.1652
     29 C24        -1.6438   -2.7441    7.0895 C.ar      1 <0>         0.0085
     30 C25        -2.2750   -3.9801    7.0540 C.ar      1 <0>        -0.1896
     31 C26        -3.5712   -4.0978    6.5809 C.ar      1 <0>         0.1731
     32 C27        -4.2480   -2.9719    6.1386 C.ar      1 <0>        -0.2934
     33 C28        -3.6223   -1.7378    6.1792 C.ar      1 <0>         0.1787
     34 O3         -4.2832   -0.6314    5.7481 O.3       1 <0>        -0.3015
     35 C29        -5.6161   -0.8178    5.2680 C.3       1 <0>         0.0210
     36 O4         -4.1776   -5.3136    6.5500 O.3       1 <0>        -0.3122
     37 C30        -5.5153   -5.3588    6.0493 C.3       1 <0>         0.0259
     38 C31        -0.2243   -2.6960    7.5899 C.3       1 <0>        -0.1028
     39 C32         0.1507   -1.2828    8.0114 C.3       1 <0>         0.1031
     40 H1          1.1794    2.2174    0.6936 H         1 <0>         0.0743
     41 H2         -0.3829    2.6326   -0.0514 H         1 <0>         0.0716
     42 H3         -0.3200    2.0989    1.6454 H         1 <0>         0.0629
     43 H4         -0.1325    1.0355   -1.8650 H         1 <0>         0.1274
     44 H5         -0.4087   -1.2996   -2.5911 H         1 <0>         0.1262
     45 H6         -0.4828   -3.1105   -0.9259 H         1 <0>         0.1264
     46 H7         -0.2808   -2.5904    1.4709 H         1 <0>         0.1211
     47 H8          1.8852    1.6755    2.1520 H         1 <0>         0.1350
     48 H9          4.1065    1.7285    3.2097 H         1 <0>         0.1302
     49 H10         4.7744   -0.0582    4.7652 H         1 <0>         0.1273
     50 H11         3.2238   -1.9019    5.2676 H         1 <0>         0.1251
     51 H12         0.8832   -3.0926    3.6033 H         1 <0>         0.0696
     52 H13         0.9090   -2.6369    5.3237 H         1 <0>         0.0713
     53 H14        -0.2995   -1.9200    4.2312 H         1 <0>         0.0658
     54 H15        -2.9471    0.1188    4.9940 H         1 <0>         0.1537
     55 H16        -2.6297    2.5814    4.9942 H         1 <0>         0.0761
     56 H17        -3.1340    2.0327    6.6123 H         1 <0>         0.0813
     57 H18        -1.2472    3.6361    6.7643 H         1 <0>         0.0734
     58 H19        -0.7672    2.0259    7.3484 H         1 <0>         0.0652
     59 H20        -0.2225    3.1465    4.5625 H         1 <0>         0.0781
     60 H21         0.9734    2.9846    5.8712 H         1 <0>         0.0815
     61 H22         1.1128    1.0479    4.2693 H         1 <0>         0.1742
     62 H23        -2.1194    0.2571    7.5531 H         1 <0>         0.0813
     63 H24        -1.7498   -4.8587    7.3985 H         1 <0>         0.1329
     64 H25        -5.2575   -3.0571    5.7641 H         1 <0>         0.1378
     65 H26        -5.6043   -1.5013    4.4190 H         1 <0>         0.0580
     66 H27        -6.2334   -1.2365    6.0629 H         1 <0>         0.0567
     67 H28        -6.0275    0.1422    4.9560 H         1 <0>         0.1045
     68 H29        -6.1555   -4.7277    6.6657 H         1 <0>         0.0562
     69 H30        -5.5307   -4.9975    5.0210 H         1 <0>         0.0561
     70 H31        -5.8799   -6.3855    6.0792 H         1 <0>         0.1034
     71 H32        -0.1248   -3.3621    8.4470 H         1 <0>         0.0945
     72 H33         0.4453   -3.0316    6.7981 H         1 <0>         0.0907
     73 H34         1.2308   -1.2255    8.1460 H         1 <0>         0.1062
     74 H35        -0.3531   -1.0178    8.9409 H         1 <0>         0.0789
@<TRIPOS>BOND
     1    1    2 1
     2    1   40 1
     3    1   41 1
     4    1   42 1
     5    2    7 ar
     6    2    3 ar
     7    3    4 ar
     8    3   43 1
     9    4    5 ar
    10    4   44 1
    11    5    6 ar
    12    5   45 1
    13    6    7 ar
    14    6   46 1
    15    7    8 1
    16    8    9 1
    17    8   16 am
    18    9   14 ar
    19    9   10 ar
    20   10   11 ar
    21   10   47 1
    22   11   12 ar
    23   11   48 1
    24   12   13 ar
    25   12   49 1
    26   13   14 ar
    27   13   50 1
    28   14   15 1
    29   15   51 1
    30   15   52 1
    31   15   53 1
    32   16   17 2
    33   16   18 am
    34   18   23 1
    35   18   19 1
    36   19   27 1
    37   19   20 1
    38   19   54 1
    39   20   21 1
    40   20   55 1
    41   20   56 1
    42   21   22 1
    43   21   57 1
    44   21   58 1
    45   22   23 1
    46   22   59 1
    47   22   60 1
    48   23   24 1
    49   23   61 1
    50   24   25 2
    51   24   26 am
    52   26   39 1
    53   26   27 1
    54   27   28 1
    55   27   62 1
    56   28   33 ar
    57   28   29 ar
    58   29   30 ar
    59   29   38 1
    60   30   31 ar
    61   30   63 1
    62   31   32 ar
    63   31   36 1
    64   32   33 ar
    65   32   64 1
    66   33   34 1
    67   34   35 1
    68   35   65 1
    69   35   66 1
    70   35   67 1
    71   36   37 1
    72   37   68 1
    73   37   69 1
    74   37   70 1
    75   38   39 1
    76   38   71 1
    77   38   72 1
    78   39   73 1
    79   39   74 1
@<TRIPOS>MOLECULE
CHEMBL202000__1
   74    79     0     0     0
SMALL
USER_CHARGES

@<TRIPOS>ATOM
      1 C1          0.2222    1.9332    0.5979 C.3       1 <0>        -0.1164
      2 C2         -0.0507    0.5274    0.1285 C.ar      1 <0>        -0.0756
      3 C3         -0.2413    0.2720   -1.2156 C.ar      1 <0>        -0.1137
      4 C4         -0.4923   -1.0174   -1.6470 C.ar      1 <0>        -0.1077
      5 C5         -0.5533   -2.0553   -0.7350 C.ar      1 <0>        -0.1175
      6 C6         -0.3636   -1.8066    0.6100 C.ar      1 <0>        -0.0963
      7 C7         -0.1052   -0.5134    1.0459 C.ar      1 <0>         0.1541
      8 N1          0.0933   -0.2587    2.4085 N.am      1 <0>        -0.5387
      9 C8          1.3830   -0.3161    2.9509 C.ar      1 <0>         0.1322
     10 C9          2.3002    0.6891    2.6730 C.ar      1 <0>        -0.1413
     11 C10         3.5711    0.6299    3.2098 C.ar      1 <0>        -0.1068
     12 C11         3.9310   -0.4290    4.0234 C.ar      1 <0>        -0.0961
     13 C12         3.0203   -1.4313    4.3020 C.ar      1 <0>        -0.0883
     14 C13         1.7457   -1.3751    3.7723 C.ar      1 <0>        -0.0889
     15 C14         0.7518   -2.4650    4.0811 C.3       1 <0>        -0.1125
     16 C15        -0.9570    0.0416    3.1979 C.2       1 <0>         0.7274
     17 O1         -2.0906   -0.1042    2.7831 O.2       1 <0>        -0.5574
     18 N2         -0.7509    0.5035    4.4465 N.am      1 <0>        -0.6227
     19 C16        -1.8142    0.5236    5.4734 C.3       1 <0>         0.1614
     20 C17        -2.0016    1.9499    5.9699 C.3       1 <0>        -0.1162
     21 C18        -0.6772    2.5934    6.3790 C.3       1 <0>        -0.1288
     22 C19         0.3147    2.5237    5.2146 C.3       1 <0>        -0.1244
     23 C20         0.5513    1.0314    4.9023 C.3       1 <0>         0.0803
     24 C21         0.8759    0.3635    6.2136 C.2       1 <0>         0.5189
     25 O2          2.0243    0.4042    6.6074 O.2       1 <0>        -0.5320
     26 N3         -0.0333   -0.2677    6.9799 N.am      1 <0>        -0.5956
     27 C22        -1.4269   -0.4457    6.5777 C.3       1 <0>         0.2044
     28 C23        -2.3564   -0.3690    7.7537 C.ar      1 <0>        -0.1626
     29 C24        -1.8996   -0.8668    8.9703 C.ar      1 <0>         0.0006
     30 C25        -2.6539   -0.7493   10.1152 C.ar      1 <0>        -0.1803
     31 C26        -3.9236   -0.1939   10.0526 C.ar      1 <0>         0.1784
     32 C27        -4.4274    0.2108    8.8287 C.ar      1 <0>        -0.3054
     33 C28        -3.6554    0.0971    7.6759 C.ar      1 <0>         0.1902
     34 O3         -4.2394    0.4048    6.4878 O.3       1 <0>        -0.3068
     35 C29        -5.5872    0.8778    6.5306 C.3       1 <0>         0.0241
     36 O4         -4.6646   -0.0506   11.1806 O.3       1 <0>        -0.3100
     37 C30        -5.9623    0.5298   11.0350 C.3       1 <0>         0.0254
     38 C31        -0.5836   -1.5989    8.9984 C.3       1 <0>        -0.0926
     39 C32         0.4700   -0.7886    8.2591 C.3       1 <0>         0.1200
     40 H1          1.2968    2.1156    0.5934 H         1 <0>         0.0743
     41 H2         -0.2693    2.6410   -0.0696 H         1 <0>         0.0719
     42 H3         -0.1636    2.0598    1.6095 H         1 <0>         0.0628
     43 H4         -0.1947    1.0805   -1.9302 H         1 <0>         0.1274
     44 H5         -0.6413   -1.2144   -2.6984 H         1 <0>         0.1263
     45 H6         -0.7498   -3.0614   -1.0750 H         1 <0>         0.1271
     46 H7         -0.4117   -2.6174    1.3218 H         1 <0>         0.1226
     47 H8          2.0198    1.5161    2.0374 H         1 <0>         0.1361
     48 H9          4.2849    1.4111    2.9938 H         1 <0>         0.1316
     49 H10         4.9257   -0.4733    4.4418 H         1 <0>         0.1287
     50 H11         3.3043   -2.2569    4.9377 H         1 <0>         0.1269
     51 H12         0.8346   -3.2545    3.3342 H         1 <0>         0.0739
     52 H13         0.9589   -2.8764    5.0691 H         1 <0>         0.0679
     53 H14        -0.2569   -2.0525    4.0635 H         1 <0>         0.0625
     54 H15        -2.7335    0.1766    4.9924 H         1 <0>         0.1287
     55 H16        -2.4525    2.5504    5.1740 H         1 <0>         0.0709
     56 H17        -2.6722    1.9636    6.8288 H         1 <0>         0.0789
     57 H18        -0.8578    3.6418    6.6325 H         1 <0>         0.0693
     58 H19        -0.2745    2.0826    7.2501 H         1 <0>         0.0678
     59 H20        -0.1074    3.0202    4.3415 H         1 <0>         0.0798
     60 H21         1.2524    2.9966    5.4981 H         1 <0>         0.0821
     61 H22         1.3363    0.8892    4.1646 H         1 <0>         0.1743
     62 H23        -1.5124   -1.4611    6.1605 H         1 <0>         0.0731
     63 H24        -2.2529   -1.0903   11.0587 H         1 <0>         0.1367
     64 H25        -5.4283    0.6134    8.7622 H         1 <0>         0.1391
     65 H26        -6.2248    0.1178    6.9822 H         1 <0>         0.0573
     66 H27        -5.6332    1.7905    7.1247 H         1 <0>         0.0566
     67 H28        -5.9316    1.0859    5.5176 H         1 <0>         0.1055
     68 H29        -5.8673    1.5322   10.6177 H         1 <0>         0.0568
     69 H30        -6.5630   -0.0867   10.3662 H         1 <0>         0.0567
     70 H31        -6.4465    0.5864   12.0099 H         1 <0>         0.1042
     71 H32        -0.2738   -1.7315   10.0376 H         1 <0>         0.0973
     72 H33        -0.7015   -2.5761    8.5309 H         1 <0>         0.0917
     73 H34         1.3378   -1.4214    8.0697 H         1 <0>         0.0807
     74 H35         0.7796    0.0495    8.8843 H         1 <0>         0.0701
@<TRIPOS>BOND
     1    1    2 1
     2    1   40 1
     3    1   41 1
     4    1   42 1
     5    2    7 ar
     6    2    3 ar
     7    3    4 ar
     8    3   43 1
     9    4    5 ar
    10    4   44 1
    11    5    6 ar
    12    5   45 1
    13    6    7 ar
    14    6   46 1
    15    7    8 1
    16    8    9 1
    17    8   16 am
    18    9   14 ar
    19    9   10 ar
    20   10   11 ar
    21   10   47 1
    22   11   12 ar
    23   11   48 1
    24   12   13 ar
    25   12   49 1
    26   13   14 ar
    27   13   50 1
    28   14   15 1
    29   15   51 1
    30   15   52 1
    31   15   53 1
    32   16   17 2
    33   16   18 am
    34   18   23 1
    35   18   19 1
    36   19   27 1
    37   19   20 1
    38   19   54 1
    39   20   21 1
    40   20   55 1
    41   20   56 1
    42   21   22 1
    43   21   57 1
    44   21   58 1
    45   22   23 1
    46   22   59 1
    47   22   60 1
    48   23   24 1
    49   23   61 1
    50   24   25 2
    51   24   26 am
    52   26   39 1
    53   26   27 1
    54   27   28 1
    55   27   62 1
    56   28   33 ar
    57   28   29 ar
    58   29   30 ar
    59   29   38 1
    60   30   31 ar
    61   30   63 1
    62   31   32 ar
    63   31   36 1
    64   32   33 ar
    65   32   64 1
    66   33   34 1
    67   34   35 1
    68   35   65 1
    69   35   66 1
    70   35   67 1
    71   36   37 1
    72   37   68 1
    73   37   69 1
    74   37   70 1
    75   38   39 1
    76   38   71 1
    77   38   72 1
    78   39   73 1
    79   39   74 1
@<TRIPOS>MOLECULE
CHEMBL202000__2
   74    79     0     0     0
SMALL
USER_CHARGES

@<TRIPOS>ATOM
      1 C1         -0.1138    1.8970    0.4113 C.3       1 <0>        -0.1163
      2 C2         -0.3821    0.4463    0.1041 C.ar      1 <0>        -0.0744
      3 C3         -0.7314    0.0639   -1.1765 C.ar      1 <0>        -0.1134
      4 C4         -0.9782   -1.2669   -1.4590 C.ar      1 <0>        -0.1074
      5 C5         -0.8762   -2.2192   -0.4613 C.ar      1 <0>        -0.1179
      6 C6         -0.5274   -1.8433    0.8209 C.ar      1 <0>        -0.0966
      7 C7         -0.2728   -0.5082    1.1066 C.ar      1 <0>         0.1541
      8 N1          0.0867   -0.1245    2.4044 N.am      1 <0>        -0.5392
      9 C8          1.4364   -0.0903    2.7758 C.ar      1 <0>         0.1336
     10 C9          2.2586    0.9309    2.3175 C.ar      1 <0>        -0.1367
     11 C10         3.5891    0.9621    2.6859 C.ar      1 <0>        -0.1034
     12 C11         4.1031   -0.0221    3.5105 C.ar      1 <0>        -0.1073
     13 C12         3.2872   -1.0401    3.9684 C.ar      1 <0>        -0.1043
     14 C13         1.9542   -1.0740    3.6078 C.ar      1 <0>        -0.0839
     15 C14         1.0643   -2.1807    4.1120 C.3       1 <0>        -0.1180
     16 C15        -0.8663    0.2117    3.2961 C.2       1 <0>         0.7263
     17 O1         -2.0387    0.0278    3.0314 O.2       1 <0>        -0.5585
     18 N2         -0.5202    0.7513    4.4799 N.am      1 <0>        -0.6217
     19 C16        -1.4880    0.9317    5.5846 C.3       1 <0>         0.1615
     20 C17        -0.9822    0.1979    6.8168 C.3       1 <0>        -0.1165
     21 C18         0.4689    0.5504    7.1428 C.3       1 <0>        -0.1295
     22 C19         1.3582    0.2890    5.9216 C.3       1 <0>        -0.1364
     23 C20         0.8520    1.2070    4.7888 C.3       1 <0>         0.0839
     24 C21         0.7471    2.5923    5.3732 C.2       1 <0>         0.5138
     25 O2          1.7489    3.2769    5.4011 O.2       1 <0>        -0.5379
     26 N3         -0.3886    3.1154    5.8732 N.am      1 <0>        -0.5960
     27 C22        -1.6751    2.4239    5.8128 C.3       1 <0>         0.2034
     28 C23        -2.5251    2.7168    7.0152 C.ar      1 <0>        -0.1604
     29 C24        -2.4408    3.9904    7.5674 C.ar      1 <0>         0.0006
     30 C25        -3.1263    4.3146    8.7153 C.ar      1 <0>        -0.1790
     31 C26        -3.9698    3.3822    9.3025 C.ar      1 <0>         0.1775
     32 C27        -4.1321    2.1434    8.7088 C.ar      1 <0>        -0.3047
     33 C28        -3.4312    1.8212    7.5500 C.ar      1 <0>         0.1899
     34 O3         -3.7107    0.6321    6.9523 O.3       1 <0>        -0.3072
     35 C29        -4.6656   -0.2110    7.6000 C.3       1 <0>         0.0240
     36 O4         -4.6337    3.6848   10.4482 O.3       1 <0>        -0.3105
     37 C30        -5.4835    2.6730   10.9922 C.3       1 <0>         0.0255
     38 C31        -1.6218    5.0303    6.8473 C.3       1 <0>        -0.0930
     39 C32        -0.2662    4.4505    6.4710 C.3       1 <0>         0.1182
     40 H1          0.9423    2.1132    0.2502 H         1 <0>         0.0741
     41 H2         -0.7173    2.5249   -0.2441 H         1 <0>         0.0722
     42 H3         -0.3723    2.1022    1.4502 H         1 <0>         0.0615
     43 H4         -0.8122    0.8052   -1.9577 H         1 <0>         0.1275
     44 H5         -1.2515   -1.5633   -2.4610 H         1 <0>         0.1264
     45 H6         -1.0700   -3.2578   -0.6851 H         1 <0>         0.1272
     46 H7         -0.4483   -2.5874    1.5997 H         1 <0>         0.1231
     47 H8          1.8579    1.6996    1.6733 H         1 <0>         0.1354
     48 H9          4.2290    1.7558    2.3295 H         1 <0>         0.1326
     49 H10         5.1441    0.0043    3.7969 H         1 <0>         0.1310
     50 H11         3.6916   -1.8072    4.6122 H         1 <0>         0.1319
     51 H12         1.0906   -3.0156    3.4119 H         1 <0>         0.0751
     52 H13         1.4165   -2.5139    5.0883 H         1 <0>         0.0739
     53 H14         0.0420   -1.8130    4.2007 H         1 <0>         0.0673
     54 H15        -2.4358    0.4925    5.2580 H         1 <0>         0.1299
     55 H16        -1.5960    0.4494    7.6838 H         1 <0>         0.0800
     56 H17        -1.0522   -0.8815    6.6468 H         1 <0>         0.0693
     57 H18         0.5374    1.5945    7.4348 H         1 <0>         0.0666
     58 H19         0.8111   -0.0758    7.9707 H         1 <0>         0.0695
     59 H20         2.3932    0.5320    6.1568 H         1 <0>         0.0807
     60 H21         1.2771   -0.7542    5.6169 H         1 <0>         0.0983
     61 H22         1.5005    1.1779    3.9175 H         1 <0>         0.1728
     62 H23        -2.2066    2.8186    4.9334 H         1 <0>         0.0767
     63 H24        -3.0045    5.2918    9.1587 H         1 <0>         0.1371
     64 H25        -4.8061    1.4193    9.1416 H         1 <0>         0.1394
     65 H26        -4.3099   -0.4619    8.5993 H         1 <0>         0.0565
     66 H27        -5.6197    0.3109    7.6743 H         1 <0>         0.0576
     67 H28        -4.7955   -1.1249    7.0204 H         1 <0>         0.1048
     68 H29        -6.2547    2.4170   10.2657 H         1 <0>         0.0567
     69 H30        -4.8921    1.7867   11.2219 H         1 <0>         0.0566
     70 H31        -5.9520    3.0435   11.9040 H         1 <0>         0.1041
     71 H32        -2.1483    5.3476    5.9477 H         1 <0>         0.0915
     72 H33        -1.4799    5.8927    7.5029 H         1 <0>         0.0985
     73 H34         0.3583    4.3882    7.3630 H         1 <0>         0.0708
     74 H35         0.2149    5.1163    5.7532 H         1 <0>         0.0811
@<TRIPOS>BOND
     1    1    2 1
     2    1   40 1
     3    1   41 1
     4    1   42 1
     5    2    7 ar
     6    2    3 ar
     7    3    4 ar
     8    3   43 1
     9    4    5 ar
    10    4   44 1
    11    5    6 ar
    12    5   45 1
    13    6    7 ar
    14    6   46 1
    15    7    8 1
    16    8    9 1
    17    8   16 am
    18    9   14 ar
    19    9   10 ar
    20   10   11 ar
    21   10   47 1
    22   11   12 ar
    23   11   48 1
    24   12   13 ar
    25   12   49 1
    26   13   14 ar
    27   13   50 1
    28   14   15 1
    29   15   51 1
    30   15   52 1
    31   15   53 1
    32   16   17 2
    33   16   18 am
    34   18   23 1
    35   18   19 1
    36   19   27 1
    37   19   20 1
    38   19   54 1
    39   20   21 1
    40   20   55 1
    41   20   56 1
    42   21   22 1
    43   21   57 1
    44   21   58 1
    45   22   23 1
    46   22   59 1
    47   22   60 1
    48   23   24 1
    49   23   61 1
    50   24   25 2
    51   24   26 am
    52   26   39 1
    53   26   27 1
    54   27   28 1
    55   27   62 1
    56   28   33 ar
    57   28   29 ar
    58   29   30 ar
    59   29   38 1
    60   30   31 ar
    61   30   63 1
    62   31   32 ar
    63   31   36 1
    64   32   33 ar
    65   32   64 1
    66   33   34 1
    67   34   35 1
    68   35   65 1
    69   35   66 1
    70   35   67 1
    71   36   37 1
    72   37   68 1
    73   37   69 1
    74   37   70 1
    75   38   39 1
    76   38   71 1
    77   38   72 1
    78   39   73 1
    79   39   74 1
@<TRIPOS>MOLECULE
CHEMBL202000__3
   74    79     0     0     0
SMALL
USER_CHARGES

@<TRIPOS>ATOM
      1 C1          0.1447    1.9504    0.6639 C.3       1 <0>        -0.1158
      2 C2          0.0075    0.5128    0.2330 C.ar      1 <0>        -0.0747
      3 C3         -0.0537    0.1965   -1.1102 C.ar      1 <0>        -0.1134
      4 C4         -0.1800   -1.1221   -1.5064 C.ar      1 <0>        -0.1076
      5 C5         -0.2455   -2.1284   -0.5598 C.ar      1 <0>        -0.1180
      6 C6         -0.1849   -1.8187    0.7846 C.ar      1 <0>        -0.0964
      7 C7         -0.0518   -0.4956    1.1856 C.ar      1 <0>         0.1544
      8 N1          0.0158   -0.1787    2.5479 N.am      1 <0>        -0.5399
      9 C8          1.2572   -0.1249    3.1935 C.ar      1 <0>         0.1355
     10 C9          2.1377    0.9146    2.9231 C.ar      1 <0>        -0.1367
     11 C10         3.3610    0.9651    3.5617 C.ar      1 <0>        -0.1035
     12 C11         3.7098   -0.0180    4.4699 C.ar      1 <0>        -0.1093
     13 C12         2.8354   -1.0541    4.7413 C.ar      1 <0>        -0.1050
     14 C13         1.6081   -1.1074    4.1097 C.ar      1 <0>        -0.0843
     15 C14         0.6534   -2.2340    4.4104 C.3       1 <0>        -0.1177
     16 C15        -1.1141    0.0744    3.2377 C.2       1 <0>         0.7268
     17 O1         -2.1976   -0.1391    2.7291 O.2       1 <0>        -0.5550
     18 N2         -1.0428    0.5642    4.4913 N.am      1 <0>        -0.6144
     19 C16        -2.1921    0.5442    5.4138 C.3       1 <0>         0.1378
     20 C17        -1.7932   -0.2785    6.6465 C.3       1 <0>        -0.1272
     21 C18        -0.5499    0.3460    7.2839 C.3       1 <0>        -0.1288
     22 C19         0.6016    0.3501    6.2767 C.3       1 <0>        -0.1363
     23 C20         0.1965    1.1550    5.0427 C.3       1 <0>         0.0808
     24 C21        -0.1554    2.5598    5.4697 C.2       1 <0>         0.5219
     25 O2          0.7208    3.3934    5.5610 O.2       1 <0>        -0.5374
     26 N3         -1.4217    2.9000    5.7492 N.am      1 <0>        -0.5951
     27 C22        -2.5349    1.9598    5.8417 C.3       1 <0>         0.1992
     28 C23        -3.7318    2.4801    5.0931 C.ar      1 <0>        -0.1626
     29 C24        -3.8029    3.7861    4.6570 C.ar      1 <0>         0.0087
     30 C25        -4.9366    4.2228    3.9851 C.ar      1 <0>        -0.1892
     31 C26        -5.9902    3.3576    3.7411 C.ar      1 <0>         0.1730
     32 C27        -5.9148    2.0419    4.1711 C.ar      1 <0>        -0.2923
     33 C28        -4.7873    1.6064    4.8459 C.ar      1 <0>         0.1832
     34 O3         -4.7103    0.3176    5.2703 O.3       1 <0>        -0.3031
     35 C29        -5.8270   -0.5271    4.9849 C.3       1 <0>         0.0206
     36 O4         -7.0946    3.7971    3.0825 O.3       1 <0>        -0.3124
     37 C30        -8.1416    2.8488    2.8666 C.3       1 <0>         0.0261
     38 C31        -2.6860    4.7750    4.8636 C.3       1 <0>        -0.0968
     39 C32        -1.7352    4.3263    5.9805 C.3       1 <0>         0.1032
     40 H1          1.2011    2.2084    0.7377 H         1 <0>         0.0743
     41 H2         -0.3369    2.5971   -0.0696 H         1 <0>         0.0718
     42 H3         -0.3310    2.0855    1.6353 H         1 <0>         0.0611
     43 H4         -0.0032    0.9801   -1.8518 H         1 <0>         0.1272
     44 H5         -0.2280   -1.3668   -2.5572 H         1 <0>         0.1264
     45 H6         -0.3446   -3.1574   -0.8724 H         1 <0>         0.1271
     46 H7         -0.2364   -2.6049    1.5233 H         1 <0>         0.1229
     47 H8          1.8661    1.6824    2.2137 H         1 <0>         0.1354
     48 H9          4.0463    1.7730    3.3516 H         1 <0>         0.1323
     49 H10         4.6672    0.0236    4.9678 H         1 <0>         0.1307
     50 H11         3.1107   -1.8203    5.4509 H         1 <0>         0.1319
     51 H12         0.8411   -3.0617    3.7264 H         1 <0>         0.0742
     52 H13         0.8000   -2.5704    5.4367 H         1 <0>         0.0729
     53 H14        -0.3716   -1.8847    4.2855 H         1 <0>         0.0674
     54 H15        -3.0518    0.0919    4.9193 H         1 <0>         0.1540
     55 H16        -2.6118   -0.2768    7.3663 H         1 <0>         0.0829
     56 H17        -1.5731   -1.3027    6.3456 H         1 <0>         0.0746
     57 H18        -0.7722    1.3700    7.5844 H         1 <0>         0.0645
     58 H19        -0.2623   -0.2337    8.1610 H         1 <0>         0.0740
     59 H20         1.4824    0.8014    6.7334 H         1 <0>         0.0809
     60 H21         0.8296   -0.6740    5.9812 H         1 <0>         0.0962
     61 H22         0.9939    1.1506    4.2996 H         1 <0>         0.1678
     62 H23        -2.8263    1.9131    6.8910 H         1 <0>         0.0828
     63 H24        -4.9977    5.2476    3.6496 H         1 <0>         0.1328
     64 H25        -6.7311    1.3608    3.9811 H         1 <0>         0.1375
     65 H26        -6.7217   -0.1174    5.4536 H         1 <0>         0.0569
     66 H27        -5.9746   -0.5823    3.9064 H         1 <0>         0.0584
     67 H28        -5.6364   -1.5261    5.3771 H         1 <0>         0.1032
     68 H29        -7.7608    2.0154    2.2761 H         1 <0>         0.0562
     69 H30        -8.5009    2.4793    3.8270 H         1 <0>         0.0559
     70 H31        -8.9615    3.3282    2.3319 H         1 <0>         0.1031
     71 H32        -2.1177    4.8707    3.9384 H         1 <0>         0.0845
     72 H33        -3.1107    5.7448    5.1230 H         1 <0>         0.0946
     73 H34        -2.2297    4.4446    6.9447 H         1 <0>         0.0775
     74 H35        -0.8178    4.9146    5.9599 H         1 <0>         0.1079
@<TRIPOS>BOND
     1    1    2 1
     2    1   40 1
     3    1   41 1
     4    1   42 1
     5    2    7 ar
     6    2    3 ar
     7    3    4 ar
     8    3   43 1
     9    4    5 ar
    10    4   44 1
    11    5    6 ar
    12    5   45 1
    13    6    7 ar
    14    6   46 1
    15    7    8 1
    16    8    9 1
    17    8   16 am
    18    9   14 ar
    19    9   10 ar
    20   10   11 ar
    21   10   47 1
    22   11   12 ar
    23   11   48 1
    24   12   13 ar
    25   12   49 1
    26   13   14 ar
    27   13   50 1
    28   14   15 1
    29   15   51 1
    30   15   52 1
    31   15   53 1
    32   16   17 2
    33   16   18 am
    34   18   23 1
    35   18   19 1
    36   19   27 1
    37   19   20 1
    38   19   54 1
    39   20   21 1
    40   20   55 1
    41   20   56 1
    42   21   22 1
    43   21   57 1
    44   21   58 1
    45   22   23 1
    46   22   59 1
    47   22   60 1
    48   23   24 1
    49   23   61 1
    50   24   25 2
    51   24   26 am
    52   26   39 1
    53   26   27 1
    54   27   28 1
    55   27   62 1
    56   28   33 ar
    57   28   29 ar
    58   29   30 ar
    59   29   38 1
    60   30   31 ar
    61   30   63 1
    62   31   32 ar
    63   31   36 1
    64   32   33 ar
    65   32   64 1
    66   33   34 1
    67   34   35 1
    68   35   65 1
    69   35   66 1
    70   35   67 1
    71   36   37 1
    72   37   68 1
    73   37   69 1
    74   37   70 1
    75   38   39 1
    76   38   71 1
    77   38   72 1
    78   39   73 1
    79   39   74 1
@<TRIPOS>MOLECULE
CHEMBL202048
   66    70     0     0     0
SMALL
USER_CHARGES

@<TRIPOS>ATOM
      1 C1          1.6697   -1.9110   -3.8095 C.3       1 <0>         0.0240
      2 O1          1.1174   -2.2095   -2.5258 O.3       1 <0>        -0.3075
      3 C2         -0.0850   -2.8425   -2.5035 C.ar      1 <0>         0.1595
      4 C3         -0.6784   -3.1558   -1.2930 C.ar      1 <0>        -0.1203
      5 C4         -1.9157   -3.8072   -1.2716 C.ar      1 <0>        -0.0935
      6 C5         -2.5467   -4.1385   -2.4749 C.ar      1 <0>        -0.1315
      7 C6         -1.9442   -3.8205   -3.6796 C.ar      1 <0>         0.1622
      8 C7         -0.7185   -3.1687   -3.6949 C.ar      1 <0>        -0.2605
      9 O2         -2.5560   -4.1423   -4.8497 O.3       1 <0>        -0.3058
     10 C8         -1.8784   -3.7846   -6.0559 C.3       1 <0>         0.0241
     11 C9         -2.5523   -4.1438    0.0147 C.2       1 <0>         0.3999
     12 O3         -1.9619   -3.9411    1.0554 O.2       1 <0>        -0.4005
     13 C10        -3.9233   -4.7341    0.0371 C.2       1 <0>         0.5087
     14 O4         -4.8965   -4.0096    0.0050 O.2       1 <0>        -0.4947
     15 N1         -4.0803   -6.0715    0.0931 N.am      1 <0>        -0.5935
     16 C11        -5.4026   -6.7162    0.0025 C.3       1 <0>         0.1184
     17 C12        -5.6295   -7.5112    1.2954 C.3       1 <0>        -0.1258
     18 C13        -4.4991   -8.5294    1.4616 C.3       1 <0>        -0.1306
     19 C14        -3.1549   -7.8027    1.5366 C.3       1 <0>        -0.1235
     20 C15        -2.9373   -6.9987    0.2438 C.3       1 <0>         0.1198
     21 C16        -2.9924   -7.9375   -0.9375 C.2       1 <0>         0.5235
     22 O5         -1.9836   -8.5085   -1.2939 O.2       1 <0>        -0.5276
     23 N2         -4.1395   -8.1499   -1.5981 N.am      1 <0>        -0.5917
     24 C17        -5.4348   -7.6628   -1.1838 C.3       1 <0>         0.1971
     25 C18        -6.1625   -7.0505   -2.3497 C.ar      1 <0>        -0.1699
     26 C19        -5.7284   -7.2229   -3.6469 C.ar      1 <0>         0.0110
     27 C20        -6.4446   -6.6515   -4.6900 C.ar      1 <0>        -0.1852
     28 C21        -7.5822   -5.9029   -4.4387 C.ar      1 <0>         0.1747
     29 C22        -8.0132   -5.7212   -3.1339 C.ar      1 <0>        -0.2932
     30 C23        -7.3038   -6.2955   -2.0932 C.ar      1 <0>         0.1789
     31 O6         -7.7241   -6.1211   -0.8126 O.3       1 <0>        -0.3037
     32 C24        -8.9019   -5.3358   -0.6176 C.3       1 <0>         0.0203
     33 O7         -8.2738   -5.3477   -5.4684 O.3       1 <0>        -0.3119
     34 C25        -9.4374   -4.5886   -5.1338 C.3       1 <0>         0.0257
     35 C26        -4.4858   -8.0000   -3.9926 C.3       1 <0>        -0.0977
     36 C27        -4.0978   -8.9306   -2.8530 C.3       1 <0>         0.1034
     37 H1          2.6282   -1.4072   -3.6844 H         1 <0>         0.1067
     38 H2          1.8156   -2.8365   -4.3664 H         1 <0>         0.0578
     39 H3          0.9866   -1.2615   -4.3568 H         1 <0>         0.0574
     40 H4         -0.1866   -2.8980   -0.3667 H         1 <0>         0.1494
     41 H5         -3.5021   -4.6420   -2.4640 H         1 <0>         0.1363
     42 H6         -0.2540   -2.9185   -4.6373 H         1 <0>         0.1431
     43 H7         -0.9074   -4.2790   -6.0874 H         1 <0>         0.0576
     44 H8         -2.4736   -4.0978   -6.9136 H         1 <0>         0.1060
     45 H9         -1.7371   -2.7042   -6.0866 H         1 <0>         0.0570
     46 H10        -6.1745   -5.9556   -0.1140 H         1 <0>         0.1587
     47 H11        -5.6344   -6.8299    2.1462 H         1 <0>         0.0791
     48 H12        -6.5848   -8.0331    1.2395 H         1 <0>         0.0862
     49 H13        -4.6553   -9.0981    2.3783 H         1 <0>         0.0795
     50 H14        -4.4962   -9.2099    0.6101 H         1 <0>         0.0679
     51 H15        -3.1541   -7.1272    2.3921 H         1 <0>         0.0880
     52 H16        -2.3529   -8.5324    1.6487 H         1 <0>         0.0901
     53 H17        -1.9946   -6.4524    0.2771 H         1 <0>         0.1258
     54 H18        -6.0181   -8.5324   -0.8811 H         1 <0>         0.0874
     55 H19        -6.1110   -6.7921   -5.7075 H         1 <0>         0.1333
     56 H20        -8.8970   -5.1348   -2.9304 H         1 <0>         0.1382
     57 H21        -9.1265   -5.2759    0.4473 H         1 <0>         0.1048
     58 H22        -8.7390   -4.3326   -1.0116 H         1 <0>         0.0589
     59 H23        -9.7386   -5.7998   -1.1399 H         1 <0>         0.0575
     60 H24        -9.8938   -4.2025   -6.0452 H         1 <0>         0.1031
     61 H25       -10.1505   -5.2273   -4.6127 H         1 <0>         0.0562
     62 H26        -9.1553   -3.7568   -4.4882 H         1 <0>         0.0565
     63 H27        -4.6723   -8.5920   -4.8887 H         1 <0>         0.0955
     64 H28        -3.6714   -7.3027   -4.1893 H         1 <0>         0.0904
     65 H29        -3.0874   -9.3020   -3.0240 H         1 <0>         0.1068
     66 H30        -4.7945   -9.7666   -2.7918 H         1 <0>         0.0822
@<TRIPOS>BOND
     1    1    2 1
     2    1   37 1
     3    1   38 1
     4    1   39 1
     5    2    3 1
     6    3    8 ar
     7    3    4 ar
     8    4    5 ar
     9    4   40 1
    10    5    6 ar
    11    5   11 1
    12    6    7 ar
    13    6   41 1
    14    7    8 ar
    15    7    9 1
    16    8   42 1
    17    9   10 1
    18   10   43 1
    19   10   44 1
    20   10   45 1
    21   11   12 2
    22   11   13 1
    23   13   14 2
    24   13   15 am
    25   15   20 1
    26   15   16 1
    27   16   24 1
    28   16   17 1
    29   16   46 1
    30   17   18 1
    31   17   47 1
    32   17   48 1
    33   18   19 1
    34   18   49 1
    35   18   50 1
    36   19   20 1
    37   19   51 1
    38   19   52 1
    39   20   21 1
    40   20   53 1
    41   21   22 2
    42   21   23 am
    43   23   36 1
    44   23   24 1
    45   24   25 1
    46   24   54 1
    47   25   30 ar
    48   25   26 ar
    49   26   27 ar
    50   26   35 1
    51   27   28 ar
    52   27   55 1
    53   28   29 ar
    54   28   33 1
    55   29   30 ar
    56   29   56 1
    57   30   31 1
    58   31   32 1
    59   32   57 1
    60   32   58 1
    61   32   59 1
    62   33   34 1
    63   34   60 1
    64   34   61 1
    65   34   62 1
    66   35   36 1
    67   35   63 1
    68   35   64 1
    69   36   65 1
    70   36   66 1
@<TRIPOS>MOLECULE
CHEMBL202048__1
   66    70     0     0     0
SMALL
USER_CHARGES

@<TRIPOS>ATOM
      1 C1          1.6699   -1.9111   -3.8092 C.3       1 <0>         0.0239
      2 O1          1.1175   -2.2094   -2.5255 O.3       1 <0>        -0.3074
      3 C2         -0.0848   -2.8427   -2.5033 C.ar      1 <0>         0.1599
      4 C3         -0.6783   -3.1557   -1.2928 C.ar      1 <0>        -0.1199
      5 C4         -1.9155   -3.8074   -1.2714 C.ar      1 <0>        -0.0928
      6 C5         -2.5462   -4.1391   -2.4748 C.ar      1 <0>        -0.1332
      7 C6         -1.9436   -3.8213   -3.6795 C.ar      1 <0>         0.1617
      8 C7         -0.7180   -3.1693   -3.6948 C.ar      1 <0>        -0.2605
      9 O2         -2.5552   -4.1434   -4.8496 O.3       1 <0>        -0.3082
     10 C8         -1.8774   -3.7859   -6.0558 C.3       1 <0>         0.0241
     11 C9         -2.5523   -4.1438    0.0148 C.2       1 <0>         0.4009
     12 O3         -1.9620   -3.9410    1.0556 O.2       1 <0>        -0.3986
     13 C10        -3.9233   -4.7341    0.0371 C.2       1 <0>         0.5091
     14 O4         -4.8965   -4.0097    0.0049 O.2       1 <0>        -0.4941
     15 N1         -4.0803   -6.0710    0.0931 N.am      1 <0>        -0.6012
     16 C11        -5.4055   -6.7209    0.0100 C.3       1 <0>         0.1418
     17 C12        -5.6233   -7.5709    1.2534 C.3       1 <0>        -0.1188
     18 C13        -4.4453   -8.5066    1.5220 C.3       1 <0>        -0.1307
     19 C14        -3.1489   -7.6966    1.6086 C.3       1 <0>        -0.1242
     20 C15        -2.9472   -7.0067    0.2433 C.3       1 <0>         0.1251
     21 C16        -3.1021   -8.0765   -0.8066 C.2       1 <0>         0.5153
     22 O5         -2.1343   -8.7603   -1.0736 O.2       1 <0>        -0.5309
     23 N2         -4.2523   -8.3263   -1.4599 N.am      1 <0>        -0.5933
     24 C17        -5.4607   -7.5247   -1.2784 C.3       1 <0>         0.2034
     25 C18        -6.7011   -8.3646   -1.3722 C.ar      1 <0>        -0.1634
     26 C19        -6.6877   -9.4380   -2.2577 C.ar      1 <0>         0.0015
     27 C20        -7.7494  -10.3101   -2.3342 C.ar      1 <0>        -0.1797
     28 C21        -8.8874  -10.0823   -1.5744 C.ar      1 <0>         0.1795
     29 C22        -8.9506   -8.9600   -0.7669 C.ar      1 <0>        -0.3052
     30 C23        -7.8694   -8.0867   -0.6876 C.ar      1 <0>         0.1907
     31 O6         -8.0274   -6.9445    0.0321 O.3       1 <0>        -0.3083
     32 C24        -9.2789   -6.7653    0.6981 C.3       1 <0>         0.0237
     33 O7         -9.9292  -10.9509   -1.6242 O.3       1 <0>        -0.3098
     34 C25       -11.0659  -10.6478   -0.8130 C.3       1 <0>         0.0252
     35 C26        -5.5092   -9.5913   -3.1829 C.3       1 <0>        -0.0930
     36 C27        -4.2162   -9.4620   -2.3925 C.3       1 <0>         0.1191
     37 H1          2.6283   -1.4071   -3.6841 H         1 <0>         0.1067
     38 H2          1.8161   -2.8367   -4.3658 H         1 <0>         0.0579
     39 H3          0.9868   -1.2618   -4.3568 H         1 <0>         0.0577
     40 H4         -0.1868   -2.8976   -0.3665 H         1 <0>         0.1498
     41 H5         -3.5016   -4.6427   -2.4640 H         1 <0>         0.1371
     42 H6         -0.2534   -2.9192   -4.6371 H         1 <0>         0.1432
     43 H7         -0.9063   -4.2801   -6.0870 H         1 <0>         0.0578
     44 H8         -2.4724   -4.0995   -6.9135 H         1 <0>         0.1062
     45 H9         -1.7363   -2.7055   -6.0868 H         1 <0>         0.0578
     46 H10        -6.1538   -5.9237   -0.0277 H         1 <0>         0.1348
     47 H11        -5.7540   -6.9138    2.1186 H         1 <0>         0.0740
     48 H12        -6.5249   -8.1732    1.1435 H         1 <0>         0.0832
     49 H13        -4.6113   -9.0184    2.4742 H         1 <0>         0.0751
     50 H14        -4.3766   -9.2472    0.7291 H         1 <0>         0.0703
     51 H15        -3.2366   -6.9444    2.3919 H         1 <0>         0.0890
     52 H16        -2.3115   -8.3590    1.8168 H         1 <0>         0.0904
     53 H17        -1.9854   -6.5052    0.1787 H         1 <0>         0.1307
     54 H18        -5.4930   -6.8020   -2.1085 H         1 <0>         0.0807
     55 H19        -7.6911  -11.1695   -2.9864 H         1 <0>         0.1374
     56 H20        -9.8452   -8.7538   -0.1966 H         1 <0>         0.1396
     57 H21        -9.2725   -5.8162    1.2341 H         1 <0>         0.1059
     58 H22       -10.0842   -6.7623   -0.0364 H         1 <0>         0.0579
     59 H23        -9.4345   -7.5805    1.4047 H         1 <0>         0.0571
     60 H24       -11.8237  -11.4199   -0.9463 H         1 <0>         0.1044
     61 H25       -10.7655  -10.6105    0.2341 H         1 <0>         0.0571
     62 H26       -11.4757   -9.6818   -1.1081 H         1 <0>         0.0570
     63 H27        -5.5504  -10.5787   -3.6489 H         1 <0>         0.0988
     64 H28        -5.5535   -8.8261   -3.9574 H         1 <0>         0.0940
     65 H29        -3.3864   -9.3268   -3.0870 H         1 <0>         0.0836
     66 H30        -4.0508  -10.3790   -1.8260 H         1 <0>         0.0729
@<TRIPOS>BOND
     1    1    2 1
     2    1   37 1
     3    1   38 1
     4    1   39 1
     5    2    3 1
     6    3    8 ar
     7    3    4 ar
     8    4    5 ar
     9    4   40 1
    10    5    6 ar
    11    5   11 1
    12    6    7 ar
    13    6   41 1
    14    7    8 ar
    15    7    9 1
    16    8   42 1
    17    9   10 1
    18   10   43 1
    19   10   44 1
    20   10   45 1
    21   11   12 2
    22   11   13 1
    23   13   14 2
    24   13   15 am
    25   15   20 1
    26   15   16 1
    27   16   24 1
    28   16   17 1
    29   16   46 1
    30   17   18 1
    31   17   47 1
    32   17   48 1
    33   18   19 1
    34   18   49 1
    35   18   50 1
    36   19   20 1
    37   19   51 1
    38   19   52 1
    39   20   21 1
    40   20   53 1
    41   21   22 2
    42   21   23 am
    43   23   36 1
    44   23   24 1
    45   24   25 1
    46   24   54 1
    47   25   30 ar
    48   25   26 ar
    49   26   27 ar
    50   26   35 1
    51   27   28 ar
    52   27   55 1
    53   28   29 ar
    54   28   33 1
    55   29   30 ar
    56   29   56 1
    57   30   31 1
    58   31   32 1
    59   32   57 1
    60   32   58 1
    61   32   59 1
    62   33   34 1
    63   34   60 1
    64   34   61 1
    65   34   62 1
    66   35   36 1
    67   35   63 1
    68   35   64 1
    69   36   65 1
    70   36   66 1
@<TRIPOS>MOLECULE
CHEMBL202048__2
   66    70     0     0     0
SMALL
USER_CHARGES

@<TRIPOS>ATOM
      1 C1          1.4407   -1.3651    3.7256 C.3       1 <0>         0.0239
      2 O1          0.9654   -1.8473    2.4672 O.3       1 <0>        -0.3075
      3 C2         -0.2407   -2.4737    2.4621 C.ar      1 <0>         0.1597
      4 C3         -0.7564   -2.9696    1.2774 C.ar      1 <0>        -0.1207
      5 C4         -1.9976   -3.6140    1.2737 C.ar      1 <0>        -0.0953
      6 C5         -2.7109   -3.7536    2.4685 C.ar      1 <0>        -0.1333
      7 C6         -2.1856   -3.2538    3.6474 C.ar      1 <0>         0.1615
      8 C7         -0.9504   -2.6200    3.6462 C.ar      1 <0>        -0.2605
      9 O2         -2.8779   -3.3883    4.8091 O.3       1 <0>        -0.3081
     10 C8         -2.2771   -2.8494    5.9884 C.3       1 <0>         0.0240
     11 C9         -2.5523   -4.1438    0.0148 C.2       1 <0>         0.4012
     12 O3         -1.9789   -3.9384   -1.0349 O.2       1 <0>        -0.3975
     13 C10        -3.8194   -4.9331    0.0312 C.2       1 <0>         0.5093
     14 O4         -4.8901   -4.3626   -0.0020 O.2       1 <0>        -0.4954
     15 N1         -3.7743   -6.2775    0.0827 N.am      1 <0>        -0.6007
     16 C11        -4.9884   -7.1178   -0.0135 C.3       1 <0>         0.1419
     17 C12        -4.8399   -8.0784   -1.1831 C.3       1 <0>        -0.1185
     18 C13        -3.5120   -8.8344   -1.1434 C.3       1 <0>        -0.1306
     19 C14        -2.3461   -7.8414   -1.0728 C.3       1 <0>        -0.1259
     20 C15        -2.5151   -7.0376    0.2339 C.3       1 <0>         0.1251
     21 C16        -2.7255   -8.0460    1.3342 C.2       1 <0>         0.5169
     22 O5         -1.7447   -8.5509    1.8402 O.2       1 <0>        -0.5305
     23 N2         -3.9355   -8.4270    1.7860 N.am      1 <0>        -0.5937
     24 C17        -5.1831   -7.8249    1.3192 C.3       1 <0>         0.2029
     25 C18        -6.3052   -8.8214    1.2798 C.ar      1 <0>        -0.1623
     26 C19        -6.3280   -9.8035    2.2642 C.ar      1 <0>         0.0016
     27 C20        -7.2764  -10.8001    2.2528 C.ar      1 <0>        -0.1788
     28 C21        -8.2704  -10.7963    1.2845 C.ar      1 <0>         0.1789
     29 C22        -8.3113   -9.7715    0.3562 C.ar      1 <0>        -0.3046
     30 C23        -7.3452   -8.7694    0.3715 C.ar      1 <0>         0.1905
     31 O6         -7.4967   -7.7322   -0.4950 O.3       1 <0>        -0.3087
     32 C24        -8.6112   -7.7900   -1.3875 C.3       1 <0>         0.0237
     33 O7         -9.1980  -11.7880    1.2512 O.3       1 <0>        -0.3102
     34 C25       -10.1894  -11.7147    0.2246 C.3       1 <0>         0.0252
     35 C26        -5.3201   -9.7210    3.3813 C.3       1 <0>        -0.0933
     36 C27        -3.9314   -9.4814    2.8074 C.3       1 <0>         0.1187
     37 H1          2.4109   -0.8876    3.5888 H         1 <0>         0.1067
     38 H2          0.7327   -0.6406    4.1280 H         1 <0>         0.0576
     39 H3          1.5410   -2.1993    4.4199 H         1 <0>         0.0579
     40 H4         -0.2016   -2.8589    0.3575 H         1 <0>         0.1496
     41 H5         -3.6700   -4.2500    2.4712 H         1 <0>         0.1393
     42 H6         -0.5422   -2.2355    4.5692 H         1 <0>         0.1432
     43 H7         -2.1241   -1.7778    5.8610 H         1 <0>         0.0578
     44 H8         -2.9320   -3.0240    6.8421 H         1 <0>         0.1062
     45 H9         -1.3169   -3.3355    6.1617 H         1 <0>         0.0579
     46 H10        -5.8326   -6.4453   -0.1946 H         1 <0>         0.1346
     47 H11        -5.6487   -8.8114   -1.1739 H         1 <0>         0.0836
     48 H12        -4.8961   -7.5154   -2.1204 H         1 <0>         0.0742
     49 H13        -3.4898   -9.4944   -0.2807 H         1 <0>         0.0701
     50 H14        -3.4140   -9.4318   -2.0534 H         1 <0>         0.0754
     51 H15        -1.3999   -8.3800   -1.0534 H         1 <0>         0.0903
     52 H16        -2.3772   -7.1674   -1.9287 H         1 <0>         0.0898
     53 H17        -1.6650   -6.3898    0.4290 H         1 <0>         0.1303
     54 H18        -5.4576   -7.0532    2.0545 H         1 <0>         0.0810
     55 H19        -7.2438  -11.5845    2.9944 H         1 <0>         0.1376
     56 H20        -9.0955   -9.7432   -0.3854 H         1 <0>         0.1398
     57 H21        -8.6147   -6.9039   -2.0223 H         1 <0>         0.1057
     58 H22        -8.5330   -8.6819   -2.0091 H         1 <0>         0.0571
     59 H23        -9.5360   -7.8282   -0.8119 H         1 <0>         0.0580
     60 H24       -10.8659  -12.5650    0.3115 H         1 <0>         0.1043
     61 H25       -10.7544  -10.7886    0.3306 H         1 <0>         0.0569
     62 H26        -9.7042  -11.7346   -0.7512 H         1 <0>         0.0570
     63 H27        -5.5869   -8.9039    4.0510 H         1 <0>         0.0930
     64 H28        -5.3262  -10.6597    3.9405 H         1 <0>         0.0995
     65 H29        -3.5603  -10.4070    2.3657 H         1 <0>         0.0730
     66 H30        -3.2616   -9.1870    3.6164 H         1 <0>         0.0835
@<TRIPOS>BOND
     1    1    2 1
     2    1   37 1
     3    1   38 1
     4    1   39 1
     5    2    3 1
     6    3    8 ar
     7    3    4 ar
     8    4    5 ar
     9    4   40 1
    10    5    6 ar
    11    5   11 1
    12    6    7 ar
    13    6   41 1
    14    7    8 ar
    15    7    9 1
    16    8   42 1
    17    9   10 1
    18   10   43 1
    19   10   44 1
    20   10   45 1
    21   11   12 2
    22   11   13 1
    23   13   14 2
    24   13   15 am
    25   15   20 1
    26   15   16 1
    27   16   24 1
    28   16   17 1
    29   16   46 1
    30   17   18 1
    31   17   47 1
    32   17   48 1
    33   18   19 1
    34   18   49 1
    35   18   50 1
    36   19   20 1
    37   19   51 1
    38   19   52 1
    39   20   21 1
    40   20   53 1
    41   21   22 2
    42   21   23 am
    43   23   36 1
    44   23   24 1
    45   24   25 1
    46   24   54 1
    47   25   30 ar
    48   25   26 ar
    49   26   27 ar
    50   26   35 1
    51   27   28 ar
    52   27   55 1
    53   28   29 ar
    54   28   33 1
    55   29   30 ar
    56   29   56 1
    57   30   31 1
    58   31   32 1
    59   32   57 1
    60   32   58 1
    61   32   59 1
    62   33   34 1
    63   34   60 1
    64   34   61 1
    65   34   62 1
    66   35   36 1
    67   35   63 1
    68   35   64 1
    69   36   65 1
    70   36   66 1
@<TRIPOS>MOLECULE
CHEMBL202048__3
   66    70     0     0     0
SMALL
USER_CHARGES

@<TRIPOS>ATOM
      1 C1          1.4394   -1.3601    3.7227 C.3       1 <0>         0.0239
      2 O1          0.9645   -1.8439    2.4647 O.3       1 <0>        -0.3075
      3 C2         -0.2415   -2.4705    2.4601 C.ar      1 <0>         0.1595
      4 C3         -0.7569   -2.9679    1.2759 C.ar      1 <0>        -0.1209
      5 C4         -1.9980   -3.6124    1.2726 C.ar      1 <0>        -0.0958
      6 C5         -2.7116   -3.7506    2.4674 C.ar      1 <0>        -0.1316
      7 C6         -2.1867   -3.2493    3.6458 C.ar      1 <0>         0.1619
      8 C7         -0.9516   -2.6154    3.6442 C.ar      1 <0>        -0.2602
      9 O2         -2.8793   -3.3824    4.8075 O.3       1 <0>        -0.3069
     10 C8         -2.2789   -2.8420    5.9863 C.3       1 <0>         0.0240
     11 C9         -2.5523   -4.1439    0.0142 C.2       1 <0>         0.4004
     12 O3         -1.9786   -3.9398   -1.0355 O.2       1 <0>        -0.3991
     13 C10        -3.8194   -4.9331    0.0312 C.2       1 <0>         0.5086
     14 O4         -4.8901   -4.3626   -0.0016 O.2       1 <0>        -0.4949
     15 N1         -3.7742   -6.2791    0.0828 N.am      1 <0>        -0.5923
     16 C11        -4.9846   -7.1144   -0.0139 C.3       1 <0>         0.1181
     17 C12        -4.8320   -8.0261   -1.2390 C.3       1 <0>        -0.1266
     18 C13        -3.5609   -8.8643   -1.0837 C.3       1 <0>        -0.1303
     19 C14        -2.3438   -7.9437   -0.9758 C.3       1 <0>        -0.1266
     20 C15        -2.5055   -7.0248    0.2344 C.3       1 <0>         0.1213
     21 C16        -2.6559   -7.8726    1.4747 C.2       1 <0>         0.5244
     22 O5         -1.6652   -8.2515    2.0628 O.2       1 <0>        -0.5288
     23 N2         -3.8679   -8.2126    1.9362 N.am      1 <0>        -0.5941
     24 C17        -5.1245   -7.9666    1.2345 C.3       1 <0>         0.1982
     25 C18        -6.1519   -7.3939    2.1725 C.ar      1 <0>        -0.1678
     26 C19        -5.9700   -7.4007    3.5392 C.ar      1 <0>         0.0115
     27 C20        -6.9557   -6.8752    4.3637 C.ar      1 <0>        -0.1872
     28 C21        -8.1130   -6.3368    3.8263 C.ar      1 <0>         0.1748
     29 C22        -8.2918   -6.3213    2.4517 C.ar      1 <0>        -0.2929
     30 C23        -7.3123   -6.8496    1.6285 C.ar      1 <0>         0.1807
     31 O6         -7.4847   -6.8375    0.2806 O.3       1 <0>        -0.3041
     32 C24        -8.6971   -6.2648   -0.2133 C.3       1 <0>         0.0201
     33 O7         -9.0706   -5.8257    4.6439 O.3       1 <0>        -0.3118
     34 C25       -10.2374   -5.2871    4.0191 C.3       1 <0>         0.0257
     35 C26        -4.7270   -7.9454    4.1920 C.3       1 <0>        -0.0981
     36 C27        -3.9605   -8.8831    3.2506 C.3       1 <0>         0.1048
     37 H1          2.4096   -0.8827    3.5855 H         1 <0>         0.1067
     38 H2          0.7312   -0.6352    4.1240 H         1 <0>         0.0574
     39 H3          1.5396   -2.1935    4.4181 H         1 <0>         0.0579
     40 H4         -0.2018   -2.8582    0.3559 H         1 <0>         0.1493
     41 H5         -3.6707   -4.2471    2.4704 H         1 <0>         0.1381
     42 H6         -0.5437   -2.2296    4.5668 H         1 <0>         0.1431
     43 H7         -2.1260   -1.7705    5.8576 H         1 <0>         0.0573
     44 H8         -2.9340   -3.0156    6.8400 H         1 <0>         0.1061
     45 H9         -1.3188   -3.3277    6.1604 H         1 <0>         0.0578
     46 H10        -5.8623   -6.4774   -0.1236 H         1 <0>         0.1586
     47 H11        -5.6967   -8.6856   -1.3127 H         1 <0>         0.0869
     48 H12        -4.7590   -7.4169   -2.1399 H         1 <0>         0.0790
     49 H13        -3.6361   -9.4729   -0.1825 H         1 <0>         0.0681
     50 H14        -3.4476   -9.5148   -1.9509 H         1 <0>         0.0797
     51 H15        -1.4423   -8.5452   -0.8590 H         1 <0>         0.0909
     52 H16        -2.2635   -7.3398   -1.8797 H         1 <0>         0.0879
     53 H17        -1.6599   -6.3419    0.3166 H         1 <0>         0.1247
     54 H18        -5.5068   -8.9365    0.9163 H         1 <0>         0.0883
     55 H19        -6.8188   -6.8868    5.4350 H         1 <0>         0.1337
     56 H20        -9.1902   -5.8997    2.0256 H         1 <0>         0.1384
     57 H21        -8.7074   -6.3187   -1.3020 H         1 <0>         0.1046
     58 H22        -9.5484   -6.8163    0.1858 H         1 <0>         0.0576
     59 H23        -8.7605   -5.2226    0.0994 H         1 <0>         0.0591
     60 H24       -10.9193   -4.9137    4.7831 H         1 <0>         0.1033
     61 H25        -9.9508   -4.4699    3.3572 H         1 <0>         0.0566
     62 H26       -10.7323   -6.0669    3.4402 H         1 <0>         0.0562
     63 H27        -4.0749   -7.1162    4.4664 H         1 <0>         0.0881
     64 H28        -5.0065   -8.4922    5.0925 H         1 <0>         0.0955
     65 H29        -4.5082   -9.8201    3.1500 H         1 <0>         0.0795
     66 H30        -2.9604   -9.0782    3.6376 H         1 <0>         0.1092
@<TRIPOS>BOND
     1    1    2 1
     2    1   37 1
     3    1   38 1
     4    1   39 1
     5    2    3 1
     6    3    8 ar
     7    3    4 ar
     8    4    5 ar
     9    4   40 1
    10    5    6 ar
    11    5   11 1
    12    6    7 ar
    13    6   41 1
    14    7    8 ar
    15    7    9 1
    16    8   42 1
    17    9   10 1
    18   10   43 1
    19   10   44 1
    20   10   45 1
    21   11   12 2
    22   11   13 1
    23   13   14 2
    24   13   15 am
    25   15   20 1
    26   15   16 1
    27   16   24 1
    28   16   17 1
    29   16   46 1
    30   17   18 1
    31   17   47 1
    32   17   48 1
    33   18   19 1
    34   18   49 1
    35   18   50 1
    36   19   20 1
    37   19   51 1
    38   19   52 1
    39   20   21 1
    40   20   53 1
    41   21   22 2
    42   21   23 am
    43   23   36 1
    44   23   24 1
    45   24   25 1
    46   24   54 1
    47   25   30 ar
    48   25   26 ar
    49   26   27 ar
    50   26   35 1
    51   27   28 ar
    52   27   55 1
    53   28   29 ar
    54   28   33 1
    55   29   30 ar
    56   29   56 1
    57   30   31 1
    58   31   32 1
    59   32   57 1
    60   32   58 1
    61   32   59 1
    62   33   34 1
    63   34   60 1
    64   34   61 1
    65   34   62 1
    66   35   36 1
    67   35   63 1
    68   35   64 1
    69   36   65 1
    70   36   66 1
@<TRIPOS>MOLECULE
CHEMBL30416
   64    66     0     0     0
SMALL
USER_CHARGES

@<TRIPOS>ATOM
      1 C1         -0.0173    1.4248    0.0099 C.3       1 <0>         0.0261
      2 O1          0.0021   -0.0041    0.0020 O.3       1 <0>        -0.3072
      3 C2         -1.2011   -0.6379    0.0101 C.ar      1 <0>         0.0961
      4 C3         -2.3743    0.0994    0.0195 C.ar      1 <0>        -0.1702
      5 C4         -3.5965   -0.5465    0.0272 C.ar      1 <0>        -0.1119
      6 C5         -3.6519   -1.9279    0.0261 C.ar      1 <0>        -0.0788
      7 C6         -2.4852   -2.6694    0.0172 C.ar      1 <0>        -0.1677
      8 C7         -1.2569   -2.0283    0.0032 C.ar      1 <0>         0.1021
      9 O2         -0.1083   -2.7563   -0.0116 O.3       1 <0>        -0.3066
     10 C8         -0.2420   -4.1790   -0.0180 C.3       1 <0>         0.0254
     11 C9         -4.9869   -2.6268    0.0350 C.3       1 <0>        -0.0741
     12 C10        -5.4493   -2.8618   -1.4044 C.3       1 <0>        -0.1117
     13 C11        -6.8047   -3.5714   -1.3953 C.3       1 <0>         0.0690
     14 O3         -7.2365   -3.7908   -2.7397 O.3       1 <0>        -0.3505
     15 C12        -8.4167   -4.4078   -2.9077 C.2       1 <0>         0.4570
     16 O4         -9.0618   -4.7503   -1.9451 O.2       1 <0>        -0.4721
     17 C13        -8.9371   -4.6734   -4.2968 C.3       1 <0>         0.1606
     18 H1         -8.2293   -5.2951   -4.8451 H         1 <0>         0.1293
     19 C14        -9.1501   -3.3387   -5.0416 C.3       1 <0>        -0.1197
     20 C15       -10.4552   -3.5916   -5.8417 C.3       1 <0>        -0.1286
     21 C16       -11.2551   -4.4821   -4.8585 C.3       1 <0>         0.0805
     22 N1        -10.2413   -5.3480   -4.2217 N.pl3     1 <0>        -0.5724
     23 C17       -10.4712   -6.5536   -3.6649 C.2       1 <0>         0.5898
     24 N2        -11.7175   -7.0666   -3.6589 N.pl3     1 <0>        -0.6791
     25 C18       -11.9673   -8.3771   -3.0537 C.3       1 <0>         0.1452
     26 C19       -11.6781   -9.4757   -4.0786 C.3       1 <0>        -0.1267
     27 C20       -11.9390  -10.8444   -3.4466 C.3       1 <0>        -0.1148
     28 C21       -13.4011  -10.9316   -3.0044 C.3       1 <0>        -0.1233
     29 C22       -13.6903   -9.8330   -1.9794 C.3       1 <0>        -0.1143
     30 C23       -13.4294   -8.4643   -2.6115 C.3       1 <0>        -0.1268
     31 S1         -9.1800   -7.4336   -2.9653 S.2       1 <0>        -0.6236
     32 H2          1.0053    1.8021    0.0021 H         1 <0>         0.1009
     33 H3         -0.5445    1.7859   -0.8732 H         1 <0>         0.0549
     34 H4         -0.5275    1.7763    0.9067 H         1 <0>         0.0548
     35 H5         -2.3338    1.1787    0.0211 H         1 <0>         0.1356
     36 H6         -4.5102    0.0294    0.0345 H         1 <0>         0.1271
     37 H7         -2.5312   -3.7485    0.0167 H         1 <0>         0.1359
     38 H8          0.7471   -4.6369   -0.0298 H         1 <0>         0.1014
     39 H9         -0.7791   -4.4975    0.8754 H         1 <0>         0.0552
     40 H10        -0.7960   -4.4879   -0.9044 H         1 <0>         0.0557
     41 H11        -4.8923   -3.5844    0.5471 H         1 <0>         0.0767
     42 H12        -5.7178   -2.0075    0.5549 H         1 <0>         0.0777
     43 H13        -5.5439   -1.9042   -1.9165 H         1 <0>         0.0763
     44 H14        -4.7184   -3.4811   -1.9243 H         1 <0>         0.0767
     45 H15        -6.7101   -4.5289   -0.8832 H         1 <0>         0.0707
     46 H16        -7.5356   -2.9520   -0.8755 H         1 <0>         0.0655
     47 H17        -9.2836   -2.5197   -4.3348 H         1 <0>         0.0871
     48 H18        -8.3177   -3.1361   -5.7156 H         1 <0>         0.1077
     49 H19       -10.9805   -2.6569   -6.0380 H         1 <0>         0.0986
     50 H20       -10.2475   -4.1236   -6.7701 H         1 <0>         0.0881
     51 H21       -11.7546   -3.8670   -4.1100 H         1 <0>         0.0833
     52 H22       -11.9823   -5.0870   -5.4002 H         1 <0>         0.0852
     53 H23       -11.3176   -8.5075   -2.1883 H         1 <0>         0.1163
     54 H24       -12.3278   -9.3453   -4.9441 H         1 <0>         0.0578
     55 H25       -10.6365   -9.4136   -4.3937 H         1 <0>         0.0799
     56 H26       -11.7330  -11.6270   -4.1768 H         1 <0>         0.0665
     57 H27       -11.2893  -10.9747   -2.5812 H         1 <0>         0.0693
     58 H28       -14.0508  -10.8012   -3.8698 H         1 <0>         0.0614
     59 H29       -13.5870  -11.9066   -2.5541 H         1 <0>         0.0659
     60 H30       -14.7319   -9.8951   -1.6644 H         1 <0>         0.0688
     61 H31       -13.0406   -9.9634   -1.1140 H         1 <0>         0.0688
     62 H32       -13.6354   -7.6817   -1.8813 H         1 <0>         0.0687
     63 H33       -14.0791   -8.3340   -3.4769 H         1 <0>         0.0659
     64 H34       -12.4491   -6.5680   -4.0553 H         1 <0>         0.3943
@<TRIPOS>BOND
     1    1    2 1
     2    1   32 1
     3    1   33 1
     4    1   34 1
     5    2    3 1
     6    3    8 ar
     7    3    4 ar
     8    4    5 ar
     9    4   35 1
    10    5    6 ar
    11    5   36 1
    12    6    7 ar
    13    6   11 1
    14    7    8 ar
    15    7   37 1
    16    8    9 1
    17    9   10 1
    18   10   38 1
    19   10   39 1
    20   10   40 1
    21   11   12 1
    22   11   41 1
    23   11   42 1
    24   12   13 1
    25   12   43 1
    26   12   44 1
    27   13   14 1
    28   13   45 1
    29   13   46 1
    30   14   15 1
    31   15   16 2
    32   15   17 1
    33   17   18 1
    34   17   22 1
    35   17   19 1
    36   19   20 1
    37   19   47 1
    38   19   48 1
    39   20   21 1
    40   20   49 1
    41   20   50 1
    42   21   22 1
    43   21   51 1
    44   21   52 1
    45   22   23 1
    46   23   24 1
    47   23   31 2
    48   24   25 1
    49   24   64 1
    50   25   30 1
    51   25   26 1
    52   25   53 1
    53   26   27 1
    54   26   54 1
    55   26   55 1
    56   27   28 1
    57   27   56 1
    58   27   57 1
    59   28   29 1
    60   28   58 1
    61   28   59 1
    62   29   30 1
    63   29   60 1
    64   29   61 1
    65   30   62 1
    66   30   63 1
@<TRIPOS>MOLECULE
CHEMBL146804
   65    67     0     0     0
SMALL
USER_CHARGES

@<TRIPOS>ATOM
      1 C1         -2.5310    0.7717   -2.8889 C.3       1 <0>        -0.1209
      2 C2         -1.3851    1.3543   -2.0592 C.3       1 <0>        -0.1202
      3 C3         -0.0507    1.0287   -2.7332 C.3       1 <0>        -0.1152
      4 C4          0.1129   -0.4893   -2.8337 C.3       1 <0>        -0.0848
      5 C5         -1.0331   -1.0718   -3.6633 C.3       1 <0>        -0.1172
      6 C6         -2.3675   -0.7462   -2.9894 C.3       1 <0>        -0.1206
      7 C7          1.4473   -0.8149   -3.5077 C.3       1 <0>        -0.1126
      8 C8          1.6683   -2.3288   -3.4963 C.3       1 <0>        -0.1189
      9 C9          3.0027   -2.6545   -4.1703 C.3       1 <0>         0.0713
     10 O1          3.2091   -4.0685   -4.1596 O.3       1 <0>        -0.3550
     11 C10         4.3424   -4.5231   -4.7170 C.2       1 <0>         0.4680
     12 O2          5.1330   -3.7462   -5.1980 O.2       1 <0>        -0.4698
     13 C11         4.6287   -6.0024   -4.7429 C.3       1 <0>         0.1513
     14 C12         5.9243   -6.2882   -3.9770 C.3       1 <0>        -0.1242
     15 C13         6.2833   -7.7686   -4.1243 C.3       1 <0>        -0.1192
     16 C14         6.5136   -8.0949   -5.6016 C.3       1 <0>        -0.1395
     17 C15         5.2247   -7.8296   -6.3860 C.3       1 <0>         0.0741
     18 N1          4.7933   -6.4480   -6.1333 N.am      1 <0>        -0.5807
     19 C16         4.5530   -5.6055   -7.1574 C.2       1 <0>         0.4671
     20 O3          4.3270   -4.4333   -6.9386 O.2       1 <0>        -0.4777
     21 C17         4.5647   -6.1134   -8.5590 C.2       1 <0>         0.3649
     22 O4          4.6442   -7.2998   -8.7708 O.2       1 <0>        -0.4081
     23 C18         4.4775   -5.1464   -9.7116 C.3       1 <0>        -0.1166
     24 C19         3.0093   -4.8235   -9.9964 C.3       1 <0>        -0.1047
     25 C20         2.9207   -3.8418  -11.1666 C.3       1 <0>        -0.1163
     26 C21         3.5549   -4.4706  -12.4089 C.3       1 <0>        -0.1231
     27 C22         5.0230   -4.7935  -12.1241 C.3       1 <0>        -0.1187
     28 C23         5.1116   -5.7752  -10.9540 C.3       1 <0>        -0.1087
     29 H1         -3.4817    1.0038   -2.4087 H         1 <0>         0.0599
     30 H2         -2.5133    1.2061   -3.8884 H         1 <0>         0.0607
     31 H3         -1.5016    2.4357   -1.9876 H         1 <0>         0.0609
     32 H4         -1.4028    0.9200   -1.0597 H         1 <0>         0.0609
     33 H5         -0.0329    1.4630   -3.7328 H         1 <0>         0.0620
     34 H6          0.7657    1.4437   -2.1422 H         1 <0>         0.0614
     35 H7          0.0951   -0.9236   -1.8341 H         1 <0>         0.0712
     36 H8         -1.0153   -0.6375   -4.6629 H         1 <0>         0.0617
     37 H9         -0.9166   -2.1532   -3.7349 H         1 <0>         0.0639
     38 H10        -2.3852   -1.1805   -1.9898 H         1 <0>         0.0608
     39 H11        -3.1839   -1.1612   -3.5804 H         1 <0>         0.0605
     40 H12         1.4309   -0.4579   -4.5374 H         1 <0>         0.0662
     41 H13         2.2568   -0.3255   -2.9662 H         1 <0>         0.0660
     42 H14         1.6846   -2.6859   -2.4666 H         1 <0>         0.0724
     43 H15         0.8588   -2.8183   -4.0378 H         1 <0>         0.0753
     44 H16         2.9863   -2.2974   -5.2000 H         1 <0>         0.0696
     45 H17         3.8122   -2.1651   -3.6288 H         1 <0>         0.0639
     46 H18         3.8022   -6.5427   -4.2814 H         1 <0>         0.1087
     47 H19         6.7297   -5.6764   -4.3833 H         1 <0>         0.0819
     48 H20         5.7833   -6.0512   -2.9224 H         1 <0>         0.0856
     49 H21         7.1915   -7.9799   -3.5598 H         1 <0>         0.0769
     50 H22         5.4668   -8.3802   -3.7403 H         1 <0>         0.0711
     51 H23         7.3134   -7.4661   -5.9927 H         1 <0>         0.0691
     52 H24         6.7920   -9.1438   -5.7034 H         1 <0>         0.0843
     53 H25         5.4108   -7.9652   -7.4514 H         1 <0>         0.1351
     54 H26         4.4484   -8.5207   -6.0577 H         1 <0>         0.0772
     55 H27         5.0085   -4.2291   -9.4574 H         1 <0>         0.1090
     56 H28         2.4782   -5.7408  -10.2507 H         1 <0>         0.0679
     57 H29         2.5575   -4.3756   -9.1114 H         1 <0>         0.0725
     58 H30         1.8747   -3.6118  -11.3695 H         1 <0>         0.0686
     59 H31         3.4518   -2.9245  -10.9123 H         1 <0>         0.0671
     60 H32         3.0238   -5.3879  -12.6632 H         1 <0>         0.0637
     61 H33         3.4917   -3.7712  -13.2426 H         1 <0>         0.0654
     62 H34         5.4748   -5.2415  -13.0092 H         1 <0>         0.0683
     63 H35         5.5541   -3.8762  -11.8699 H         1 <0>         0.0650
     64 H36         6.1576   -6.0052  -10.7511 H         1 <0>         0.0662
     65 H37         4.5806   -6.6925  -11.2082 H         1 <0>         0.0751
@<TRIPOS>BOND
     1    1    6 1
     2    1    2 1
     3    1   29 1
     4    1   30 1
     5    2    3 1
     6    2   31 1
     7    2   32 1
     8    3    4 1
     9    3   33 1
    10    3   34 1
    11    4    5 1
    12    4    7 1
    13    4   35 1
    14    5    6 1
    15    5   36 1
    16    5   37 1
    17    6   38 1
    18    6   39 1
    19    7    8 1
    20    7   40 1
    21    7   41 1
    22    8    9 1
    23    8   42 1
    24    8   43 1
    25    9   10 1
    26    9   44 1
    27    9   45 1
    28   10   11 1
    29   11   12 2
    30   11   13 1
    31   13   18 1
    32   13   14 1
    33   13   46 1
    34   14   15 1
    35   14   47 1
    36   14   48 1
    37   15   16 1
    38   15   49 1
    39   15   50 1
    40   16   17 1
    41   16   51 1
    42   16   52 1
    43   17   18 1
    44   17   53 1
    45   17   54 1
    46   18   19 am
    47   19   20 2
    48   19   21 1
    49   21   22 2
    50   21   23 1
    51   23   28 1
    52   23   24 1
    53   23   55 1
    54   24   25 1
    55   24   56 1
    56   24   57 1
    57   25   26 1
    58   25   58 1
    59   25   59 1
    60   26   27 1
    61   26   60 1
    62   26   61 1
    63   27   28 1
    64   27   62 1
    65   27   63 1
    66   28   64 1
    67   28   65 1
@<TRIPOS>MOLECULE
CHEMBL146804__1
   65    67     0     0     0
SMALL
USER_CHARGES

@<TRIPOS>ATOM
      1 C1          0.9049    2.2700   -0.5257 C.3       1 <0>        -0.1210
      2 C2          1.8327    2.8918   -1.5714 C.3       1 <0>        -0.1203
      3 C3          1.9491    1.9520   -2.7731 C.3       1 <0>        -0.1152
      4 C4          2.5225    0.6090   -2.3167 C.3       1 <0>        -0.0849
      5 C5          1.5948   -0.0128   -1.2710 C.3       1 <0>        -0.1172
      6 C6          1.4784    0.9270   -0.0692 C.3       1 <0>        -0.1207
      7 C7          2.6389   -0.3308   -3.5184 C.3       1 <0>        -0.1127
      8 C8          3.3267   -1.6276   -3.0870 C.3       1 <0>        -0.1187
      9 C9          3.4431   -2.5673   -4.2887 C.3       1 <0>         0.0710
     10 O1          4.0855   -3.7785   -3.8858 O.3       1 <0>        -0.3526
     11 C10         4.2659   -4.7158   -4.8296 C.2       1 <0>         0.4676
     12 O2          3.8907   -4.5146   -5.9604 O.2       1 <0>        -0.4733
     13 C11         4.9363   -6.0191   -4.4788 C.3       1 <0>         0.1546
     14 C12         3.9015   -7.1487   -4.4917 C.3       1 <0>        -0.1243
     15 C13         4.6105   -8.4871   -4.2725 C.3       1 <0>        -0.1187
     16 C14         5.6061   -8.7311   -5.4088 C.3       1 <0>        -0.1351
     17 C15         6.6602   -7.6195   -5.4063 C.3       1 <0>         0.0903
     18 N1          5.9774   -6.3201   -5.4709 N.am      1 <0>        -0.5883
     19 C16         6.2999   -5.4215   -6.4221 C.2       1 <0>         0.4725
     20 O3          5.8457   -4.2970   -6.3736 O.2       1 <0>        -0.4763
     21 C17         7.2145   -5.8086   -7.5340 C.2       1 <0>         0.3644
     22 O4          7.2616   -6.9570   -7.9052 O.2       1 <0>        -0.4089
     23 C18         8.0804   -4.7671   -8.1947 C.3       1 <0>        -0.1159
     24 C19         7.2819   -4.0621   -9.2930 C.3       1 <0>        -0.1067
     25 C20         8.1610   -3.0046   -9.9638 C.3       1 <0>        -0.1160
     26 C21         9.3895   -3.6781  -10.5788 C.3       1 <0>        -0.1236
     27 C22        10.1879   -4.3831   -9.4804 C.3       1 <0>        -0.1182
     28 C23         9.3089   -5.4405   -8.8096 C.3       1 <0>        -0.1091
     29 H1          0.8220    2.9395    0.3305 H         1 <0>         0.0599
     30 H2         -0.0817    2.1143   -0.9620 H         1 <0>         0.0607
     31 H3          1.4241    3.8486   -1.8966 H         1 <0>         0.0609
     32 H4          2.8193    3.0475   -1.1351 H         1 <0>         0.0610
     33 H5          0.9624    1.7963   -3.2095 H         1 <0>         0.0619
     34 H6          2.6100    2.3950   -3.5181 H         1 <0>         0.0615
     35 H7          3.5092    0.7647   -1.8803 H         1 <0>         0.0714
     36 H8          0.6081   -0.1685   -1.7073 H         1 <0>         0.0615
     37 H9          2.0033   -0.9695   -0.9458 H         1 <0>         0.0641
     38 H10         2.4650    1.0827    0.3671 H         1 <0>         0.0609
     39 H11         0.8174    0.4841    0.6758 H         1 <0>         0.0606
     40 H12         1.6434   -0.5572   -3.9003 H         1 <0>         0.0657
     41 H13         3.2273    0.1500   -4.3000 H         1 <0>         0.0664
     42 H14         4.3222   -1.4012   -2.7051 H         1 <0>         0.0730
     43 H15         2.7384   -2.1083   -2.3054 H         1 <0>         0.0755
     44 H16         2.4476   -2.7937   -4.6707 H         1 <0>         0.0640
     45 H17         4.0315   -2.0866   -5.0703 H         1 <0>         0.0696
     46 H18         5.3858   -5.9439   -3.4887 H         1 <0>         0.1100
     47 H19         3.1759   -6.9865   -3.6947 H         1 <0>         0.0877
     48 H20         3.3891   -7.1617   -5.4537 H         1 <0>         0.0797
     49 H21         5.1430   -8.4645   -3.3217 H         1 <0>         0.0715
     50 H22         3.8736   -9.2901   -4.2567 H         1 <0>         0.0777
     51 H23         6.0938   -9.6952   -5.2645 H         1 <0>         0.0837
     52 H24         5.0777   -8.7292   -6.3622 H         1 <0>         0.0727
     53 H25         7.2500   -7.6773   -4.4915 H         1 <0>         0.0755
     54 H26         7.3128   -7.7328   -6.2720 H         1 <0>         0.1140
     55 H27         8.4003   -4.0362   -7.4520 H         1 <0>         0.1034
     56 H28         6.9620   -4.7929  -10.0357 H         1 <0>         0.0671
     57 H29         6.4067   -3.5823   -8.8549 H         1 <0>         0.0786
     58 H30         7.5921   -2.5024  -10.7462 H         1 <0>         0.0686
     59 H31         8.4809   -2.2738   -9.2211 H         1 <0>         0.0660
     60 H32         9.0695   -4.4090  -11.3214 H         1 <0>         0.0637
     61 H33        10.0157   -2.9248  -11.0566 H         1 <0>         0.0651
     62 H34        11.0631   -4.8629   -9.9186 H         1 <0>         0.0681
     63 H35        10.5079   -3.6522   -8.7378 H         1 <0>         0.0644
     64 H36         9.8777   -5.9428   -8.0272 H         1 <0>         0.0660
     65 H37         8.9889   -6.1714   -9.5523 H         1 <0>         0.0753
@<TRIPOS>BOND
     1    1    6 1
     2    1    2 1
     3    1   29 1
     4    1   30 1
     5    2    3 1
     6    2   31 1
     7    2   32 1
     8    3    4 1
     9    3   33 1
    10    3   34 1
    11    4    5 1
    12    4    7 1
    13    4   35 1
    14    5    6 1
    15    5   36 1
    16    5   37 1
    17    6   38 1
    18    6   39 1
    19    7    8 1
    20    7   40 1
    21    7   41 1
    22    8    9 1
    23    8   42 1
    24    8   43 1
    25    9   10 1
    26    9   44 1
    27    9   45 1
    28   10   11 1
    29   11   12 2
    30   11   13 1
    31   13   18 1
    32   13   14 1
    33   13   46 1
    34   14   15 1
    35   14   47 1
    36   14   48 1
    37   15   16 1
    38   15   49 1
    39   15   50 1
    40   16   17 1
    41   16   51 1
    42   16   52 1
    43   17   18 1
    44   17   53 1
    45   17   54 1
    46   18   19 am
    47   19   20 2
    48   19   21 1
    49   21   22 2
    50   21   23 1
    51   23   28 1
    52   23   24 1
    53   23   55 1
    54   24   25 1
    55   24   56 1
    56   24   57 1
    57   25   26 1
    58   25   58 1
    59   25   59 1
    60   26   27 1
    61   26   60 1
    62   26   61 1
    63   27   28 1
    64   27   62 1
    65   27   63 1
    66   28   64 1
    67   28   65 1
@<TRIPOS>MOLECULE
CHEMBL34109
   60    62     0     0     0
SMALL
USER_CHARGES

@<TRIPOS>ATOM
      1 C1          2.4403    4.8236   -3.6905 C.3       1 <0>         0.0261
      2 O1          2.0700    3.5686   -3.1160 O.3       1 <0>        -0.3074
      3 C2          2.4853    2.4469   -3.7630 C.ar      1 <0>         0.0958
      4 C3          3.2375    2.5520   -4.9219 C.ar      1 <0>        -0.1702
      5 C4          3.6593    1.4107   -5.5781 C.ar      1 <0>        -0.1120
      6 C5          3.3319    0.1629   -5.0810 C.ar      1 <0>        -0.0786
      7 C6          2.5813    0.0509   -3.9255 C.ar      1 <0>        -0.1678
      8 C7          2.1606    1.1909   -3.2595 C.ar      1 <0>         0.1018
      9 O2          1.4273    1.0825   -2.1193 O.3       1 <0>        -0.3068
     10 C8          1.1317   -0.2383   -1.6611 C.3       1 <0>         0.0254
     11 C9          3.7938   -1.0780   -5.8006 C.3       1 <0>        -0.0735
     12 C10         5.1603   -1.5027   -5.2590 C.3       1 <0>        -0.1141
     13 C11         5.6293   -2.7626   -5.9896 C.3       1 <0>         0.0723
     14 O3          6.9056   -3.1592   -5.4839 O.3       1 <0>        -0.3314
     15 C12         7.4610   -4.2556   -6.0236 C.2       1 <0>         0.4662
     16 O4          6.8828   -4.8585   -6.8965 O.2       1 <0>        -0.5045
     17 C13         8.8059   -4.7344   -5.5407 C.3       1 <0>         0.1652
     18 C14         9.7093   -5.0257   -6.7431 C.3       1 <0>        -0.1243
     19 C15        11.0215   -5.6420   -6.2527 C.3       1 <0>        -0.1153
     20 C16        10.7303   -6.9626   -5.5362 C.3       1 <0>        -0.1396
     21 C17         9.8385   -6.6933   -4.3201 C.3       1 <0>         0.1213
     22 N1          8.6389   -5.9706   -4.7643 N.pl3     1 <0>        -0.9872
     23 S1          7.1273   -6.5383   -4.3967 S.o2      1 <0>         2.6836
     24 O5          7.2436   -7.2340   -3.1631 O.2       1 <0>        -0.9471
     25 O6          6.2302   -5.4510   -4.5765 O.2       1 <0>        -0.9424
     26 C18         6.7118   -7.7408   -5.6158 C.ar      1 <0>        -0.6764
     27 C19         5.9050   -7.3929   -6.6830 C.ar      1 <0>         0.0022
     28 C20         5.5790   -8.3362   -7.6394 C.ar      1 <0>        -0.1435
     29 C21         6.0602   -9.6274   -7.5288 C.ar      1 <0>        -0.0606
     30 C22         6.8677   -9.9751   -6.4621 C.ar      1 <0>        -0.1448
     31 C23         7.1972   -9.0306   -5.5080 C.ar      1 <0>        -0.0228
     32 H1          3.5270    4.8964   -3.7348 H         1 <0>         0.0548
     33 H2          2.0299    4.8974   -4.6976 H         1 <0>         0.0547
     34 H3          2.0466    5.6342   -3.0774 H         1 <0>         0.1008
     35 H4          3.4940    3.5256   -5.3128 H         1 <0>         0.1355
     36 H5          4.2455    1.4940   -6.4813 H         1 <0>         0.1274
     37 H6          2.3265   -0.9250   -3.5394 H         1 <0>         0.1359
     38 H7          0.5429   -0.1821   -0.7456 H         1 <0>         0.1013
     39 H8          0.5649   -0.7698   -2.4256 H         1 <0>         0.0550
     40 H9          2.0619   -0.7707   -1.4628 H         1 <0>         0.0557
     41 H10         3.0739   -1.8805   -5.6398 H         1 <0>         0.0766
     42 H11         3.8743   -0.8705   -6.8676 H         1 <0>         0.0776
     43 H12         5.8802   -0.7003   -5.4198 H         1 <0>         0.0747
     44 H13         5.0798   -1.7102   -4.1920 H         1 <0>         0.0769
     45 H14         4.9094   -3.5651   -5.8289 H         1 <0>         0.0789
     46 H15         5.7098   -2.5551   -7.0567 H         1 <0>         0.0644
     47 H16         9.2632   -3.9685   -4.9144 H         1 <0>         0.1129
     48 H17         9.2082   -5.7233   -7.4142 H         1 <0>         0.0842
     49 H18         9.9195   -4.0970   -7.2737 H         1 <0>         0.0834
     50 H19        11.6761   -5.8276   -7.1043 H         1 <0>         0.0751
     51 H20        11.5100   -4.9544   -5.5624 H         1 <0>         0.0711
     52 H21        10.2196   -7.6419   -6.2187 H         1 <0>         0.0708
     53 H22        11.6672   -7.4126   -5.2077 H         1 <0>         0.0830
     54 H23         9.5471   -7.6394   -3.8640 H         1 <0>         0.0935
     55 H24        10.3823   -6.0879   -3.5950 H         1 <0>         0.0846
     56 H25         5.5291   -6.3841   -6.7694 H         1 <0>         0.1530
     57 H26         4.9481   -8.0646   -8.4728 H         1 <0>         0.1319
     58 H27         5.8049  -10.3646   -8.2756 H         1 <0>         0.1306
     59 H28         7.2434  -10.9839   -6.3755 H         1 <0>         0.1326
     60 H29         7.8312   -9.3013   -4.6766 H         1 <0>         0.1334
@<TRIPOS>BOND
     1    1    2 1
     2    1   32 1
     3    1   33 1
     4    1   34 1
     5    2    3 1
     6    3    8 ar
     7    3    4 ar
     8    4    5 ar
     9    4   35 1
    10    5    6 ar
    11    5   36 1
    12    6    7 ar
    13    6   11 1
    14    7    8 ar
    15    7   37 1
    16    8    9 1
    17    9   10 1
    18   10   38 1
    19   10   39 1
    20   10   40 1
    21   11   12 1
    22   11   41 1
    23   11   42 1
    24   12   13 1
    25   12   43 1
    26   12   44 1
    27   13   14 1
    28   13   45 1
    29   13   46 1
    30   14   15 1
    31   15   16 2
    32   15   17 1
    33   17   22 1
    34   17   18 1
    35   17   47 1
    36   18   19 1
    37   18   48 1
    38   18   49 1
    39   19   20 1
    40   19   50 1
    41   19   51 1
    42   20   21 1
    43   20   52 1
    44   20   53 1
    45   21   22 1
    46   21   54 1
    47   21   55 1
    48   22   23 1
    49   23   24 2
    50   23   25 2
    51   23   26 1
    52   26   31 ar
    53   26   27 ar
    54   27   28 ar
    55   27   56 1
    56   28   29 ar
    57   28   57 1
    58   29   30 ar
    59   29   58 1
    60   30   31 ar
    61   30   59 1
    62   31   60 1
@<TRIPOS>MOLECULE
CHEMBL34109__1
   60    62     0     0     0
SMALL
USER_CHARGES

@<TRIPOS>ATOM
      1 C1          1.2485    0.7754    2.3102 C.3       1 <0>         0.0259
      2 O1          1.1584   -0.6242    2.0362 O.3       1 <0>        -0.3075
      3 C2          1.5816   -1.0423    0.8132 C.ar      1 <0>         0.0960
      4 C3          2.0778   -0.1263   -0.1004 C.ar      1 <0>        -0.1697
      5 C4          2.5080   -0.5531   -1.3430 C.ar      1 <0>        -0.1110
      6 C5          2.4440   -1.8930   -1.6774 C.ar      1 <0>        -0.0789
      7 C6          1.9495   -2.8120   -0.7707 C.ar      1 <0>        -0.1681
      8 C7          1.5225   -2.3917    0.4787 C.ar      1 <0>         0.1010
      9 O2          1.0414   -3.2953    1.3740 O.3       1 <0>        -0.3068
     10 C8          1.0103   -4.6633    0.9621 C.3       1 <0>         0.0259
     11 C9          2.9138   -2.3527   -3.0335 C.3       1 <0>        -0.0735
     12 C10         4.4016   -2.7031   -2.9660 C.3       1 <0>        -0.1143
     13 C11         4.8785   -3.1699   -4.3428 C.3       1 <0>         0.0714
     14 O3          6.2681   -3.4972   -4.2798 O.3       1 <0>        -0.3343
     15 C12         6.8450   -3.9269   -5.4131 C.2       1 <0>         0.4704
     16 O4          6.1917   -4.0219   -6.4251 O.2       1 <0>        -0.5057
     17 C13         8.3074   -4.2907   -5.4232 C.3       1 <0>         0.1645
     18 C14         8.4845   -5.6890   -6.0233 C.3       1 <0>        -0.1244
     19 C15         9.9777   -5.9959   -6.1593 C.3       1 <0>        -0.1153
     20 C16        10.6252   -4.9798   -7.1029 C.3       1 <0>        -0.1395
     21 C17        10.4723   -3.5734   -6.5150 C.3       1 <0>         0.1225
     22 N1          9.0493   -3.3255   -6.2459 N.pl3     1 <0>        -0.9876
     23 S1          8.2961   -1.9838   -6.8581 S.o2      1 <0>         2.6848
     24 O5          7.0750   -1.8427   -6.1451 O.2       1 <0>        -0.9426
     25 O6          9.2745   -0.9544   -6.9044 O.2       1 <0>        -0.9484
     26 C18         7.8653   -2.3447   -8.5281 C.ar      1 <0>        -0.6768
     27 C19         8.7558   -2.0644   -9.5476 C.ar      1 <0>        -0.0242
     28 C20         8.4179   -2.3475  -10.8577 C.ar      1 <0>        -0.1456
     29 C21         7.1896   -2.9113  -11.1483 C.ar      1 <0>        -0.0609
     30 C22         6.2995   -3.1923  -10.1288 C.ar      1 <0>        -0.1453
     31 C23         6.6391   -2.9132   -8.8182 C.ar      1 <0>        -0.0069
     32 H1          2.2881    1.0942    2.2352 H         1 <0>         0.0551
     33 H2          0.6464    1.3266    1.5878 H         1 <0>         0.0549
     34 H3          0.8795    0.9731    3.3166 H         1 <0>         0.1009
     35 H4          2.1282    0.9211    0.1581 H         1 <0>         0.1358
     36 H5          2.8945    0.1619   -2.0542 H         1 <0>         0.1283
     37 H6          1.9002   -3.8581   -1.0346 H         1 <0>         0.1351
     38 H7          0.6058   -5.2762    1.7676 H         1 <0>         0.1009
     39 H8          0.3798   -4.7624    0.0785 H         1 <0>         0.0547
     40 H9          2.0214   -4.9948    0.7260 H         1 <0>         0.0549
     41 H10         2.3464   -3.2331   -3.3353 H         1 <0>         0.0753
     42 H11         2.7609   -1.5551   -3.7606 H         1 <0>         0.0793
     43 H12         4.9689   -1.8227   -2.6642 H         1 <0>         0.0780
     44 H13         4.5544   -3.5007   -2.2389 H         1 <0>         0.0734
     45 H14         4.3112   -4.0503   -4.6446 H         1 <0>         0.0646
     46 H15         4.7257   -2.3723   -5.0699 H         1 <0>         0.0807
     47 H16         8.6946   -4.2762   -4.4044 H         1 <0>         0.1132
     48 H17         8.0195   -6.4270   -5.3697 H         1 <0>         0.0839
     49 H18         8.0147   -5.7253   -7.0062 H         1 <0>         0.0837
     50 H19        10.4516   -5.9352   -5.1796 H         1 <0>         0.0713
     51 H20        10.1066   -7.0001   -6.5632 H         1 <0>         0.0752
     52 H21        11.6838   -5.2130   -7.2176 H         1 <0>         0.0829
     53 H22        10.1352   -5.0228   -8.0755 H         1 <0>         0.0708
     54 H23        11.0377   -3.5023   -5.5859 H         1 <0>         0.0845
     55 H24        10.8430   -2.8371   -7.2280 H         1 <0>         0.0926
     56 H25         9.7154   -1.6240   -9.3205 H         1 <0>         0.1359
     57 H26         9.1133   -2.1279  -11.6543 H         1 <0>         0.1324
     58 H27         6.9253   -3.1318  -12.1720 H         1 <0>         0.1301
     59 H28         5.3397   -3.6325  -10.3558 H         1 <0>         0.1315
     60 H29         5.9452   -3.1362   -8.0212 H         1 <0>         0.1650
@<TRIPOS>BOND
     1    1    2 1
     2    1   32 1
     3    1   33 1
     4    1   34 1
     5    2    3 1
     6    3    8 ar
     7    3    4 ar
     8    4    5 ar
     9    4   35 1
    10    5    6 ar
    11    5   36 1
    12    6    7 ar
    13    6   11 1
    14    7    8 ar
    15    7   37 1
    16    8    9 1
    17    9   10 1
    18   10   38 1
    19   10   39 1
    20   10   40 1
    21   11   12 1
    22   11   41 1
    23   11   42 1
    24   12   13 1
    25   12   43 1
    26   12   44 1
    27   13   14 1
    28   13   45 1
    29   13   46 1
    30   14   15 1
    31   15   16 2
    32   15   17 1
    33   17   22 1
    34   17   18 1
    35   17   47 1
    36   18   19 1
    37   18   48 1
    38   18   49 1
    39   19   20 1
    40   19   50 1
    41   19   51 1
    42   20   21 1
    43   20   52 1
    44   20   53 1
    45   21   22 1
    46   21   54 1
    47   21   55 1
    48   22   23 1
    49   23   24 2
    50   23   25 2
    51   23   26 1
    52   26   31 ar
    53   26   27 ar
    54   27   28 ar
    55   27   56 1
    56   28   29 ar
    57   28   57 1
    58   29   30 ar
    59   29   58 1
    60   30   31 ar
    61   30   59 1
    62   31   60 1
@<TRIPOS>MOLECULE
CHEMBL147712
   58    60     0     0     0
SMALL
USER_CHARGES

@<TRIPOS>ATOM
      1 C1         -0.0187    1.5258    0.0104 C.3       1 <0>        -0.1557
      2 C2          0.0021   -0.0041    0.0020 C.3       1 <0>        -0.1076
      3 C3         -1.4333   -0.5336    0.0129 C.3       1 <0>        -0.0877
      4 C4         -2.1494   -0.0402    1.2717 C.3       1 <0>        -0.1464
      5 C5         -2.1733   -0.0268   -1.2266 C.3       1 <0>        -0.1459
      6 C6         -1.4129   -2.0405    0.0046 C.2       1 <0>         0.3685
      7 O1         -0.3588   -2.6301   -0.0086 O.2       1 <0>        -0.4127
      8 C7         -2.6937   -2.8034    0.0127 C.2       1 <0>         0.4994
      9 O2         -3.7529   -2.2110    0.0260 O.2       1 <0>        -0.4891
     10 N1         -2.6754   -4.1510    0.0053 N.am      1 <0>        -0.5869
     11 C8         -1.4659   -4.9939   -0.0043 C.3       1 <0>         0.0927
     12 C9         -1.9192   -6.3449    0.6032 C.3       1 <0>        -0.1347
     13 C10        -3.3521   -6.4817    0.0242 C.3       1 <0>        -0.1187
     14 C11        -3.8584   -5.0241    0.0119 C.3       1 <0>         0.1441
     15 C12        -4.6819   -4.7808   -1.2265 C.2       1 <0>         0.4540
     16 O3         -4.3235   -3.9614   -2.0390 O.2       1 <0>        -0.4866
     17 O4         -5.8135   -5.4743   -1.4270 O.3       1 <0>        -0.3488
     18 C13        -6.5440   -5.1923   -2.6223 C.3       1 <0>         0.0656
     19 C14        -7.7939   -6.0732   -2.6760 C.3       1 <0>        -0.1138
     20 C15        -8.5761   -5.7713   -3.9558 C.3       1 <0>        -0.0737
     21 C16        -9.8071   -6.6389   -4.0086 C.ar      1 <0>        -0.0726
     22 C17        -9.7483   -7.8840   -4.6067 C.ar      1 <0>        -0.1045
     23 C18       -10.8747   -8.6838   -4.6572 C.ar      1 <0>        -0.0971
     24 C19       -12.0663   -8.2385   -4.1084 C.ar      1 <0>         0.0285
     25 C20       -12.1256   -6.9843   -3.5060 C.ar      1 <0>         0.0344
     26 C21       -10.9912   -6.1905   -3.4539 C.ar      1 <0>        -0.0963
     27 O5        -13.3950   -6.7801   -3.0475 O.3       1 <0>        -0.3088
     28 C22       -14.2120   -7.7463   -3.7347 C.3       1 <0>         0.2130
     29 O6        -13.2985   -8.8202   -4.0273 O.3       1 <0>        -0.3090
     30 H1          1.0039    1.9031    0.0027 H         1 <0>         0.0582
     31 H2         -0.5459    1.8868   -0.8726 H         1 <0>         0.0601
     32 H3         -0.5289    1.8773    0.9072 H         1 <0>         0.0601
     33 H4          0.5123   -0.3556   -0.8948 H         1 <0>         0.0688
     34 H5          0.5293   -0.3651    0.8851 H         1 <0>         0.0689
     35 H6         -2.1642    1.0497    1.2777 H         1 <0>         0.0758
     36 H7         -3.1720   -0.4175    1.2794 H         1 <0>         0.0777
     37 H8         -1.6223   -0.4013    2.1547 H         1 <0>         0.0564
     38 H9         -1.6631   -0.3783   -2.1234 H         1 <0>         0.0561
     39 H10        -3.1959   -0.4041   -1.2189 H         1 <0>         0.0787
     40 H11        -2.1881    1.0631   -1.2207 H         1 <0>         0.0750
     41 H12        -1.1113   -5.1369   -1.0251 H         1 <0>         0.0766
     42 H13        -0.6855   -4.5445    0.6098 H         1 <0>         0.1033
     43 H14        -1.2807   -7.1601    0.2629 H         1 <0>         0.0958
     44 H15        -1.9407   -6.2960    1.6919 H         1 <0>         0.0853
     45 H16        -3.3225   -6.8921   -0.9852 H         1 <0>         0.0852
     46 H17        -3.9734   -7.0979    0.6740 H         1 <0>         0.1032
     47 H18        -4.4572   -4.8302    0.9018 H         1 <0>         0.1208
     48 H19        -6.8386   -4.1429   -2.6291 H         1 <0>         0.0701
     49 H20        -5.9163   -5.3991   -3.4891 H         1 <0>         0.0690
     50 H21        -7.4993   -7.1226   -2.6692 H         1 <0>         0.0790
     51 H22        -8.4216   -5.8665   -1.8092 H         1 <0>         0.0785
     52 H23        -8.8706   -4.7219   -3.9625 H         1 <0>         0.0805
     53 H24        -7.9484   -5.9780   -4.8226 H         1 <0>         0.0824
     54 H25        -8.8204   -8.2324   -5.0356 H         1 <0>         0.1391
     55 H26       -10.8258   -9.6560   -5.1250 H         1 <0>         0.1370
     56 H27       -11.0332   -5.2193   -2.9834 H         1 <0>         0.1359
     57 H28       -15.0182   -8.0945   -3.0890 H         1 <0>         0.1332
     58 H29       -14.6131   -7.3230   -4.6555 H         1 <0>         0.0857
@<TRIPOS>BOND
     1    1    2 1
     2    1   30 1
     3    1   31 1
     4    1   32 1
     5    2    3 1
     6    2   33 1
     7    2   34 1
     8    3    4 1
     9    3    5 1
    10    3    6 1
    11    4   35 1
    12    4   36 1
    13    4   37 1
    14    5   38 1
    15    5   39 1
    16    5   40 1
    17    6    7 2
    18    6    8 1
    19    8    9 2
    20    8   10 am
    21   10   14 1
    22   10   11 1
    23   11   12 1
    24   11   41 1
    25   11   42 1
    26   12   13 1
    27   12   43 1
    28   12   44 1
    29   13   14 1
    30   13   45 1
    31   13   46 1
    32   14   15 1
    33   14   47 1
    34   15   16 2
    35   15   17 1
    36   17   18 1
    37   18   19 1
    38   18   48 1
    39   18   49 1
    40   19   20 1
    41   19   50 1
    42   19   51 1
    43   20   21 1
    44   20   52 1
    45   20   53 1
    46   21   26 ar
    47   21   22 ar
    48   22   23 ar
    49   22   54 1
    50   23   24 ar
    51   23   55 1
    52   24   29 1
    53   24   25 ar
    54   25   26 ar
    55   25   27 1
    56   26   56 1
    57   27   28 1
    58   28   29 1
    59   28   57 1
    60   28   58 1
@<TRIPOS>MOLECULE
CHEMBL147712__1
   58    60     0     0     0
SMALL
USER_CHARGES

@<TRIPOS>ATOM
      1 C1         -0.0187    1.5258    0.0104 C.3       1 <0>        -0.1557
      2 C2          0.0021   -0.0041    0.0020 C.3       1 <0>        -0.1076
      3 C3         -1.4333   -0.5336    0.0129 C.3       1 <0>        -0.0877
      4 C4         -2.1494   -0.0402    1.2717 C.3       1 <0>        -0.1458
      5 C5         -2.1733   -0.0268   -1.2266 C.3       1 <0>        -0.1464
      6 C6         -1.4129   -2.0405    0.0046 C.2       1 <0>         0.3685
      7 O1         -0.3588   -2.6301   -0.0086 O.2       1 <0>        -0.4127
      8 C7         -2.6937   -2.8034    0.0127 C.2       1 <0>         0.4995
      9 O2         -3.7529   -2.2110    0.0260 O.2       1 <0>        -0.4891
     10 N1         -2.6754   -4.1510    0.0053 N.am      1 <0>        -0.5867
     11 C8         -1.4659   -4.9939   -0.0043 C.3       1 <0>         0.0922
     12 C9         -1.9247   -6.3388   -0.6210 C.3       1 <0>        -0.1343
     13 C10        -3.3523   -6.4815   -0.0303 C.3       1 <0>        -0.1187
     14 C11        -3.8584   -5.0241    0.0119 C.3       1 <0>         0.1438
     15 C12        -4.6590   -4.7929    1.2676 C.2       1 <0>         0.4542
     16 O3         -4.2857   -3.9814    2.0812 O.2       1 <0>        -0.4866
     17 O4         -5.7868   -5.4884    1.4820 O.3       1 <0>        -0.3488
     18 C13        -6.4953   -5.2181    2.6932 C.3       1 <0>         0.0656
     19 C14        -7.7440   -6.0996    2.7612 C.3       1 <0>        -0.1139
     20 C15        -8.5026   -5.8102    4.0580 C.3       1 <0>        -0.0737
     21 C16        -9.7325   -6.6784    4.1250 C.ar      1 <0>        -0.0726
     22 C17       -10.9254   -6.2271    3.5913 C.ar      1 <0>        -0.1041
     23 C18       -12.0562   -7.0200    3.6498 C.ar      1 <0>        -0.0968
     24 C19       -11.9965   -8.2699    4.2445 C.ar      1 <0>         0.0285
     25 C20       -10.7949   -8.7246    4.7822 C.ar      1 <0>         0.0341
     26 C21        -9.6642   -7.9268    4.7148 C.ar      1 <0>        -0.0964
     27 O5        -10.9942   -9.9699    5.3043 O.3       1 <0>        -0.3089
     28 C22       -12.4208  -10.1038    5.4457 C.3       1 <0>         0.2131
     29 O6        -12.9485   -9.2304    4.4298 O.3       1 <0>        -0.3090
     30 H1          1.0039    1.9031    0.0027 H         1 <0>         0.0582
     31 H2         -0.5459    1.8868   -0.8726 H         1 <0>         0.0601
     32 H3         -0.5289    1.8773    0.9072 H         1 <0>         0.0601
     33 H4          0.5123   -0.3556   -0.8948 H         1 <0>         0.0689
     34 H5          0.5293   -0.3651    0.8851 H         1 <0>         0.0688
     35 H6         -2.1642    1.0497    1.2777 H         1 <0>         0.0750
     36 H7         -3.1720   -0.4175    1.2794 H         1 <0>         0.0787
     37 H8         -1.6223   -0.4013    2.1547 H         1 <0>         0.0561
     38 H9         -1.6631   -0.3783   -2.1234 H         1 <0>         0.0564
     39 H10        -3.1959   -0.4041   -1.2189 H         1 <0>         0.0777
     40 H11        -2.1881    1.0631   -1.2207 H         1 <0>         0.0758
     41 H12        -0.6911   -4.5385   -0.6210 H         1 <0>         0.1040
     42 H13        -1.1021   -5.1469    1.0117 H         1 <0>         0.0763
     43 H14        -1.9562   -6.2793   -1.7089 H         1 <0>         0.0854
     44 H15        -1.2832   -7.1574   -0.2945 H         1 <0>         0.0957
     45 H16        -3.9796   -7.0913   -0.6806 H         1 <0>         0.1035
     46 H17        -3.3136   -6.9017    0.9747 H         1 <0>         0.0845
     47 H18        -4.4734   -4.8216   -0.8649 H         1 <0>         0.1207
     48 H19        -5.8518   -5.4332    3.5463 H         1 <0>         0.0686
     49 H20        -6.7896   -4.1689    2.7156 H         1 <0>         0.0704
     50 H21        -8.3875   -5.8845    1.9081 H         1 <0>         0.0795
     51 H22        -7.4497   -7.1489    2.7389 H         1 <0>         0.0782
     52 H23        -7.8591   -6.0253    4.9111 H         1 <0>         0.0801
     53 H24        -8.7969   -4.7609    4.0803 H         1 <0>         0.0828
     54 H25       -10.9739   -5.2527    3.1280 H         1 <0>         0.1394
     55 H26       -12.9866   -6.6649    3.2321 H         1 <0>         0.1371
     56 H27        -8.7300   -8.2787    5.1269 H         1 <0>         0.1356
     57 H28       -12.7288  -11.1334    5.2633 H         1 <0>         0.1331
     58 H29       -12.7400   -9.7771    6.4353 H         1 <0>         0.0856
@<TRIPOS>BOND
     1    1    2 1
     2    1   30 1
     3    1   31 1
     4    1   32 1
     5    2    3 1
     6    2   33 1
     7    2   34 1
     8    3    4 1
     9    3    5 1
    10    3    6 1
    11    4   35 1
    12    4   36 1
    13    4   37 1
    14    5   38 1
    15    5   39 1
    16    5   40 1
    17    6    7 2
    18    6    8 1
    19    8    9 2
    20    8   10 am
    21   10   14 1
    22   10   11 1
    23   11   12 1
    24   11   41 1
    25   11   42 1
    26   12   13 1
    27   12   43 1
    28   12   44 1
    29   13   14 1
    30   13   45 1
    31   13   46 1
    32   14   15 1
    33   14   47 1
    34   15   16 2
    35   15   17 1
    36   17   18 1
    37   18   19 1
    38   18   48 1
    39   18   49 1
    40   19   20 1
    41   19   50 1
    42   19   51 1
    43   20   21 1
    44   20   52 1
    45   20   53 1
    46   21   26 ar
    47   21   22 ar
    48   22   23 ar
    49   22   54 1
    50   23   24 ar
    51   23   55 1
    52   24   29 1
    53   24   25 ar
    54   25   26 ar
    55   25   27 1
    56   26   56 1
    57   27   28 1
    58   28   29 1
    59   28   57 1
    60   28   58 1
@<TRIPOS>MOLECULE
CHEMBL341856
   64    65     0     0     0
SMALL
USER_CHARGES

@<TRIPOS>ATOM
      1 C1         -0.0187    1.5258    0.0104 C.3       1 <0>        -0.1557
      2 C2          0.0021   -0.0041    0.0020 C.3       1 <0>        -0.1076
      3 C3          0.7421   -0.5109    1.2415 C.3       1 <0>        -0.0877
      4 C4          2.1775    0.0187    1.2307 C.3       1 <0>        -0.1463
      5 C5          0.0259   -0.0175    2.5003 C.3       1 <0>        -0.1459
      6 C6          0.7625   -2.0177    1.2333 C.2       1 <0>         0.3685
      7 O1          0.2391   -2.6238    0.3291 O.2       1 <0>        -0.4125
      8 C7          1.4288   -2.7603    2.3411 C.2       1 <0>         0.4995
      9 O2          1.9547   -2.1513    3.2497 O.2       1 <0>        -0.4891
     10 N1          1.4470   -4.1079    2.3337 N.am      1 <0>        -0.5870
     11 C8          0.8554   -4.9695    1.2940 C.3       1 <0>         0.0926
     12 C9          1.6419   -6.3009    1.3875 C.3       1 <0>        -0.1346
     13 C10         1.8600   -6.4270    2.9184 C.3       1 <0>        -0.1188
     14 C11         2.0658   -4.9621    3.3579 C.3       1 <0>         0.1447
     15 C12         1.3990   -4.7308    4.6894 C.2       1 <0>         0.4540
     16 O3          0.4959   -3.9335    4.7824 O.2       1 <0>        -0.4849
     17 O4          1.8083   -5.4105    5.7721 O.3       1 <0>        -0.3492
     18 C13         1.1313   -5.1411    7.0014 C.3       1 <0>         0.0727
     19 C14         1.7316   -6.0034    8.1137 C.3       1 <0>        -0.0782
     20 C15         1.0177   -5.7193    9.4102 C.ar      1 <0>        -0.0112
     21 C16         1.4781   -4.7190   10.2457 C.ar      1 <0>        -0.2262
     22 C17         0.8244   -4.4547   11.4397 C.ar      1 <0>         0.1531
     23 C18        -0.2955   -5.1969   11.7956 C.ar      1 <0>         0.0286
     24 C19        -0.7555   -6.2014   10.9525 C.ar      1 <0>         0.1526
     25 C20        -0.0991   -6.4559    9.7578 C.ar      1 <0>        -0.2268
     26 O5         -1.8508   -6.9304   11.2964 O.3       1 <0>        -0.3012
     27 C21        -2.2671   -7.9466   10.3819 C.3       1 <0>         0.0239
     28 O6         -0.9396   -4.9409   12.9668 O.3       1 <0>        -0.3124
     29 C22        -1.9938   -3.9769   12.9302 C.3       1 <0>         0.0352
     30 O7          1.2787   -3.4710   12.2615 O.3       1 <0>        -0.3012
     31 C23         2.4349   -2.7493   11.8321 C.3       1 <0>         0.0235
     32 H1          1.0039    1.9031    0.0027 H         1 <0>         0.0601
     33 H2         -0.5459    1.8868   -0.8726 H         1 <0>         0.0584
     34 H3         -0.5289    1.8773    0.9072 H         1 <0>         0.0600
     35 H4         -1.0205   -0.3814    0.0098 H         1 <0>         0.0688
     36 H5          0.5123   -0.3556   -0.8948 H         1 <0>         0.0690
     37 H6          2.1627    1.1086    1.2367 H         1 <0>         0.0759
     38 H7          2.7046   -0.3424    2.1137 H         1 <0>         0.0775
     39 H8          2.6876   -0.3328    0.3339 H         1 <0>         0.0566
     40 H9         -0.9967   -0.3948    2.5081 H         1 <0>         0.0561
     41 H10         0.5531   -0.3786    3.3834 H         1 <0>         0.0784
     42 H11         0.0111    1.0724    2.5063 H         1 <0>         0.0751
     43 H12        -0.2019   -5.1384    1.4977 H         1 <0>         0.0766
     44 H13         0.9859   -4.5202    0.3095 H         1 <0>         0.1036
     45 H14         1.0486   -7.1326    1.0075 H         1 <0>         0.0959
     46 H15         2.5941   -6.2299    0.8617 H         1 <0>         0.0856
     47 H16         0.9816   -6.8578    3.3989 H         1 <0>         0.0850
     48 H17         2.7487   -7.0203    3.1338 H         1 <0>         0.1035
     49 H18         3.1307   -4.7412    3.4310 H         1 <0>         0.1212
     50 H19         1.2464   -4.0876    7.2563 H         1 <0>         0.0716
     51 H20         0.0724   -5.3749    6.8919 H         1 <0>         0.0702
     52 H21         1.6165   -7.0569    7.8589 H         1 <0>         0.0898
     53 H22         2.7906   -5.7696    8.2233 H         1 <0>         0.0903
     54 H23         2.3484   -4.1427    9.9684 H         1 <0>         0.1372
     55 H24        -0.4585   -7.2334    9.1000 H         1 <0>         0.1368
     56 H25        -2.5069   -7.4936    9.4199 H         1 <0>         0.0569
     57 H26        -1.4624   -8.6704   10.2522 H         1 <0>         0.0591
     58 H27        -3.1493   -8.4509   10.7761 H         1 <0>         0.1044
     59 H28        -2.7667   -4.3098   12.2375 H         1 <0>         0.0443
     60 H29        -2.4214   -3.8681   13.9269 H         1 <0>         0.0937
     61 H30        -1.5973   -3.0173   12.5983 H         1 <0>         0.0444
     62 H31         2.6905   -1.9960   12.5772 H         1 <0>         0.1046
     63 H32         3.2700   -3.4394   11.7118 H         1 <0>         0.0592
     64 H33         2.2261   -2.2621   10.8796 H         1 <0>         0.0576
@<TRIPOS>BOND
     1    1    2 1
     2    1   32 1
     3    1   33 1
     4    1   34 1
     5    2    3 1
     6    2   35 1
     7    2   36 1
     8    3    4 1
     9    3    5 1
    10    3    6 1
    11    4   37 1
    12    4   38 1
    13    4   39 1
    14    5   40 1
    15    5   41 1
    16    5   42 1
    17    6    7 2
    18    6    8 1
    19    8    9 2
    20    8   10 am
    21   10   14 1
    22   10   11 1
    23   11   12 1
    24   11   43 1
    25   11   44 1
    26   12   13 1
    27   12   45 1
    28   12   46 1
    29   13   14 1
    30   13   47 1
    31   13   48 1
    32   14   15 1
    33   14   49 1
    34   15   16 2
    35   15   17 1
    36   17   18 1
    37   18   19 1
    38   18   50 1
    39   18   51 1
    40   19   20 1
    41   19   52 1
    42   19   53 1
    43   20   25 ar
    44   20   21 ar
    45   21   22 ar
    46   21   54 1
    47   22   23 ar
    48   22   30 1
    49   23   24 ar
    50   23   28 1
    51   24   25 ar
    52   24   26 1
    53   25   55 1
    54   26   27 1
    55   27   56 1
    56   27   57 1
    57   27   58 1
    58   28   29 1
    59   29   59 1
    60   29   60 1
    61   29   61 1
    62   30   31 1
    63   31   62 1
    64   31   63 1
    65   31   64 1
@<TRIPOS>MOLECULE
CHEMBL341856__1
   64    65     0     0     0
SMALL
USER_CHARGES

@<TRIPOS>ATOM
      1 C1         -0.0187    1.5258    0.0104 C.3       1 <0>        -0.1557
      2 C2          0.0021   -0.0041    0.0020 C.3       1 <0>        -0.1076
      3 C3          0.7421   -0.5109    1.2415 C.3       1 <0>        -0.0877
      4 C4          2.1775    0.0187    1.2307 C.3       1 <0>        -0.1459
      5 C5          0.0259   -0.0175    2.5003 C.3       1 <0>        -0.1463
      6 C6          0.7625   -2.0177    1.2333 C.2       1 <0>         0.3685
      7 O1          0.2391   -2.6238    0.3291 O.2       1 <0>        -0.4126
      8 C7          1.4288   -2.7603    2.3411 C.2       1 <0>         0.4995
      9 O2          1.9547   -2.1513    3.2497 O.2       1 <0>        -0.4890
     10 N1          1.4470   -4.1079    2.3337 N.am      1 <0>        -0.5868
     11 C8          0.8554   -4.9695    1.2940 C.3       1 <0>         0.0920
     12 C9          0.5845   -6.3192    2.0043 C.3       1 <0>        -0.1343
     13 C10         1.8129   -6.4278    2.9459 C.3       1 <0>        -0.1186
     14 C11         2.0658   -4.9621    3.3579 C.3       1 <0>         0.1443
     15 C12         3.5473   -4.6934    3.4227 C.2       1 <0>         0.4542
     16 O3          4.0448   -3.8718    2.6898 O.2       1 <0>        -0.4848
     17 O4          4.3140   -5.3669    4.2947 O.3       1 <0>        -0.3492
     18 C13         5.7100   -5.0614    4.3018 C.3       1 <0>         0.0727
     19 C14         6.4149   -5.9218    5.3523 C.3       1 <0>        -0.0782
     20 C15         7.8871   -5.5997    5.3598 C.ar      1 <0>        -0.0112
     21 C16         8.7497   -6.2980    4.5358 C.ar      1 <0>        -0.2268
     22 C17        10.1050   -6.0050    4.5400 C.ar      1 <0>         0.1526
     23 C18        10.5957   -5.0073    5.3739 C.ar      1 <0>         0.0286
     24 C19         9.7251   -4.3072    6.2006 C.ar      1 <0>         0.1532
     25 C20         8.3703   -4.6028    6.1866 C.ar      1 <0>        -0.2262
     26 O5         10.2003   -3.3301    7.0184 O.3       1 <0>        -0.3012
     27 C21         9.2482   -2.6522    7.8406 C.3       1 <0>         0.0235
     28 O6         11.9253   -4.7170    5.3814 O.3       1 <0>        -0.3124
     29 C22        12.3765   -3.7188    4.4637 C.3       1 <0>         0.0352
     30 O7         10.9530   -6.6932    3.7296 O.3       1 <0>        -0.3012
     31 C23        10.3791   -7.7050    2.8996 C.3       1 <0>         0.0239
     32 H1          1.0039    1.9031    0.0027 H         1 <0>         0.0600
     33 H2         -0.5459    1.8868   -0.8726 H         1 <0>         0.0584
     34 H3         -0.5289    1.8773    0.9072 H         1 <0>         0.0601
     35 H4         -1.0205   -0.3814    0.0098 H         1 <0>         0.0690
     36 H5          0.5123   -0.3556   -0.8948 H         1 <0>         0.0688
     37 H6          2.1627    1.1086    1.2367 H         1 <0>         0.0751
     38 H7          2.7046   -0.3424    2.1137 H         1 <0>         0.0784
     39 H8          2.6876   -0.3328    0.3339 H         1 <0>         0.0561
     40 H9         -0.9967   -0.3948    2.5081 H         1 <0>         0.0566
     41 H10         0.5531   -0.3786    3.3834 H         1 <0>         0.0775
     42 H11         0.0111    1.0724    2.5063 H         1 <0>         0.0759
     43 H12        -0.0772   -4.5387    0.9297 H         1 <0>         0.1042
     44 H13         1.5572   -5.1079    0.4715 H         1 <0>         0.0763
     45 H14        -0.3432   -6.2809    2.5753 H         1 <0>         0.0857
     46 H15         0.5672   -7.1410    1.2884 H         1 <0>         0.0959
     47 H16         1.5787   -7.0406    3.8163 H         1 <0>         0.1038
     48 H17         2.6743   -6.8284    2.4114 H         1 <0>         0.0843
     49 H18         1.6089   -4.7677    4.3283 H         1 <0>         0.1210
     50 H19         6.1324   -5.2695    3.3187 H         1 <0>         0.0702
     51 H20         5.8500   -4.0075    4.5418 H         1 <0>         0.0717
     52 H21         5.9925   -5.7138    6.3353 H         1 <0>         0.0902
     53 H22         6.2749   -6.9758    5.1123 H         1 <0>         0.0899
     54 H23         8.3676   -7.0732    3.8881 H         1 <0>         0.1367
     55 H24         7.6924   -4.0563    6.8254 H         1 <0>         0.1373
     56 H25         8.5022   -2.1689    7.2097 H         1 <0>         0.0576
     57 H26         8.7581   -3.3710    8.4972 H         1 <0>         0.0593
     58 H27         9.7581   -1.8995    8.4419 H         1 <0>         0.1046
     59 H28        11.8699   -2.7768    4.6735 H         1 <0>         0.0445
     60 H29        13.4527   -3.5848    4.5729 H         1 <0>         0.0937
     61 H30        12.1512   -4.0335    3.4448 H         1 <0>         0.0443
     62 H31        11.1626   -8.1752    2.3054 H         1 <0>         0.1044
     63 H32         9.8963   -8.4566    3.5242 H         1 <0>         0.0591
     64 H33         9.6405   -7.2550    2.2362 H         1 <0>         0.0569
@<TRIPOS>BOND
     1    1    2 1
     2    1   32 1
     3    1   33 1
     4    1   34 1
     5    2    3 1
     6    2   35 1
     7    2   36 1
     8    3    4 1
     9    3    5 1
    10    3    6 1
    11    4   37 1
    12    4   38 1
    13    4   39 1
    14    5   40 1
    15    5   41 1
    16    5   42 1
    17    6    7 2
    18    6    8 1
    19    8    9 2
    20    8   10 am
    21   10   14 1
    22   10   11 1
    23   11   12 1
    24   11   43 1
    25   11   44 1
    26   12   13 1
    27   12   45 1
    28   12   46 1
    29   13   14 1
    30   13   47 1
    31   13   48 1
    32   14   15 1
    33   14   49 1
    34   15   16 2
    35   15   17 1
    36   17   18 1
    37   18   19 1
    38   18   50 1
    39   18   51 1
    40   19   20 1
    41   19   52 1
    42   19   53 1
    43   20   25 ar
    44   20   21 ar
    45   21   22 ar
    46   21   54 1
    47   22   23 ar
    48   22   30 1
    49   23   24 ar
    50   23   28 1
    51   24   25 ar
    52   24   26 1
    53   25   55 1
    54   26   27 1
    55   27   56 1
    56   27   57 1
    57   27   58 1
    58   28   29 1
    59   29   59 1
    60   29   60 1
    61   29   61 1
    62   30   31 1
    63   31   62 1
    64   31   63 1
    65   31   64 1
@<TRIPOS>MOLECULE
CHEMBL326794
   60    61     0     0     0
SMALL
USER_CHARGES

@<TRIPOS>ATOM
      1 C1         -3.6411   -0.1736   -2.4760 C.3       1 <0>        -0.1375
      2 C2         -2.7940   -1.3186   -1.9172 C.3       1 <0>        -0.0921
      3 C3         -2.2944   -0.9482   -0.5193 C.3       1 <0>        -0.1434
      4 C4         -3.6434   -2.5886   -1.8353 C.3       1 <0>        -0.1450
      5 C5         -1.6151   -1.5604   -2.8243 C.2       1 <0>         0.3670
      6 O1         -1.4677   -0.8863   -3.8156 O.2       1 <0>        -0.4098
      7 C6         -0.6309   -2.6316   -2.4980 C.2       1 <0>         0.4704
      8 O2         -0.8622   -3.4154   -1.6008 O.2       1 <0>        -0.4786
      9 N1          0.5158   -2.7295   -3.1995 N.am      1 <0>        -0.5764
     10 C7          0.8484   -1.7390   -4.2324 C.3       1 <0>         0.0642
     11 C8          2.2409   -1.1710   -3.9408 C.3       1 <0>        -0.1375
     12 C9          3.2434   -2.3219   -3.8276 C.3       1 <0>        -0.1201
     13 C10         2.8427   -3.2375   -2.6686 C.3       1 <0>        -0.1244
     14 C11         1.4598   -3.8254   -2.9416 C.3       1 <0>         0.0899
     15 H1          1.5091   -4.4780   -3.8133 H         1 <0>         0.0977
     16 C12         1.0027   -4.6142   -1.7417 C.2       1 <0>         0.3618
     17 O3          0.8357   -4.0593   -0.6822 O.2       1 <0>        -0.4139
     18 C13         0.7538   -6.0955   -1.8639 C.3       1 <0>        -0.1591
     19 C14         0.3018   -6.6500   -0.5115 C.3       1 <0>        -0.1066
     20 C15         0.0492   -8.1539   -0.6356 C.3       1 <0>        -0.1193
     21 C16        -0.4029   -8.7084    0.7168 C.3       1 <0>        -0.1127
     22 C17        -0.6555  -10.2123    0.5927 C.3       1 <0>        -0.0817
     23 C18        -1.1007  -10.7585    1.9248 C.ar      1 <0>        -0.0814
     24 C19        -0.1639  -11.2196    2.8308 C.ar      1 <0>        -0.1190
     25 C20        -0.5723  -11.7206    4.0527 C.ar      1 <0>        -0.1182
     26 C21        -1.9175  -11.7601    4.3688 C.ar      1 <0>        -0.1264
     27 C22        -2.8542  -11.2982    3.4632 C.ar      1 <0>        -0.1181
     28 C23        -2.4455  -10.7933    2.2430 C.ar      1 <0>        -0.1188
     29 H2         -3.0360    0.7311   -2.5343 H         1 <0>         0.0620
     30 H3         -3.9971   -0.4375   -3.4718 H         1 <0>         0.0624
     31 H4         -4.4938    0.0012   -1.8199 H         1 <0>         0.0695
     32 H5         -3.1471   -0.7734    0.1368 H         1 <0>         0.0729
     33 H6         -1.6909   -1.7640   -0.1212 H         1 <0>         0.0778
     34 H7         -1.6893   -0.0435   -0.5776 H         1 <0>         0.0559
     35 H8         -3.9993   -2.8524   -2.8312 H         1 <0>         0.0552
     36 H9         -3.0399   -3.4043   -1.4372 H         1 <0>         0.0832
     37 H10        -4.4961   -2.4137   -1.1792 H         1 <0>         0.0711
     38 H11         0.8467   -2.2176   -5.2117 H         1 <0>         0.0739
     39 H12         0.1144   -0.9333   -4.2159 H         1 <0>         0.1378
     40 H13         2.5399   -0.5065   -4.7514 H         1 <0>         0.0812
     41 H14         2.2181   -0.6150   -3.0036 H         1 <0>         0.0668
     42 H15         3.2476   -2.8924   -4.7564 H         1 <0>         0.0683
     43 H16         4.2395   -1.9191   -3.6445 H         1 <0>         0.0726
     44 H17         3.5700   -4.0438   -2.5738 H         1 <0>         0.0816
     45 H18         2.8142   -2.6620   -1.7434 H         1 <0>         0.0763
     46 H19        -0.0231   -6.2733   -2.6075 H         1 <0>         0.0925
     47 H20         1.6728   -6.5941   -2.1723 H         1 <0>         0.0922
     48 H21         1.0787   -6.4722    0.2321 H         1 <0>         0.0652
     49 H22        -0.6172   -6.1515   -0.2032 H         1 <0>         0.0720
     50 H23        -0.7277   -8.3317   -1.3792 H         1 <0>         0.0622
     51 H24         0.9681   -8.6525   -0.9439 H         1 <0>         0.0619
     52 H25         0.3740   -8.5307    1.4604 H         1 <0>         0.0635
     53 H26        -1.3218   -8.2099    1.0251 H         1 <0>         0.0641
     54 H27        -1.4324  -10.3901   -0.1509 H         1 <0>         0.0716
     55 H28         0.2635  -10.7109    0.2844 H         1 <0>         0.0715
     56 H29         0.8870  -11.1887    2.5838 H         1 <0>         0.1203
     57 H30         0.1595  -12.0814    4.7602 H         1 <0>         0.1211
     58 H31        -2.2366  -12.1522    5.3232 H         1 <0>         0.1206
     59 H32        -3.9051  -11.3295    3.7101 H         1 <0>         0.1212
     60 H33        -3.1771  -10.4290    1.5370 H         1 <0>         0.1204
@<TRIPOS>BOND
     1    1    2 1
     2    1   29 1
     3    1   30 1
     4    1   31 1
     5    2    3 1
     6    2    4 1
     7    2    5 1
     8    3   32 1
     9    3   33 1
    10    3   34 1
    11    4   35 1
    12    4   36 1
    13    4   37 1
    14    5    6 2
    15    5    7 1
    16    7    8 2
    17    7    9 am
    18    9   14 1
    19    9   10 1
    20   10   11 1
    21   10   38 1
    22   10   39 1
    23   11   12 1
    24   11   40 1
    25   11   41 1
    26   12   13 1
    27   12   42 1
    28   12   43 1
    29   13   14 1
    30   13   44 1
    31   13   45 1
    32   14   15 1
    33   14   16 1
    34   16   17 2
    35   16   18 1
    36   18   19 1
    37   18   46 1
    38   18   47 1
    39   19   20 1
    40   19   48 1
    41   19   49 1
    42   20   21 1
    43   20   50 1
    44   20   51 1
    45   21   22 1
    46   21   52 1
    47   21   53 1
    48   22   23 1
    49   22   54 1
    50   22   55 1
    51   23   28 ar
    52   23   24 ar
    53   24   25 ar
    54   24   56 1
    55   25   26 ar
    56   25   57 1
    57   26   27 ar
    58   26   58 1
    59   27   28 ar
    60   27   59 1
    61   28   60 1
@<TRIPOS>MOLECULE
CHEMBL108247
   57    58     0     0     0
SMALL
USER_CHARGES

@<TRIPOS>ATOM
      1 C1          0.1347    1.5294    0.0922 C.3       1 <0>        -0.1558
      2 C2          0.1235   -0.0004    0.0683 C.3       1 <0>        -0.1086
      3 C3          0.8038   -0.4956   -1.2095 C.3       1 <0>        -0.0870
      4 C4          0.0498    0.0390   -2.4287 C.3       1 <0>        -0.1470
      5 C5          2.2494    0.0045   -1.2443 C.3       1 <0>        -0.1458
      6 C6          0.7928   -2.0023   -1.2330 C.2       1 <0>         0.3754
      7 O1          0.2923   -2.6169   -0.3215 O.2       1 <0>        -0.4042
      8 C7          1.3996   -2.7344   -2.3812 C.2       1 <0>         0.4751
      9 O2          1.8023   -2.1206   -3.3477 O.2       1 <0>        -0.4801
     10 N1          1.5008   -4.0779   -2.3461 N.am      1 <0>        -0.5769
     11 C8          0.8889   -4.8464   -1.2535 C.3       1 <0>         0.0471
     12 C9          1.9580   -5.7446   -0.6234 C.3       1 <0>        -0.1357
     13 C10         2.6026   -6.6048   -1.7127 C.3       1 <0>        -0.1203
     14 C11         3.2790   -5.7005   -2.7456 C.3       1 <0>        -0.1231
     15 C12         2.2201   -4.8023   -3.4028 C.3       1 <0>         0.1476
     16 C13         2.8920   -3.8166   -4.3236 C.2       1 <0>         0.4805
     17 O3          3.7726   -3.1028   -3.9056 O.2       1 <0>        -0.4932
     18 O4          2.5121   -3.7317   -5.6082 O.3       1 <0>        -0.3510
     19 C14         3.1920   -2.7755   -6.4240 C.3       1 <0>         0.0727
     20 C15         2.6267   -2.8236   -7.8449 C.3       1 <0>        -0.1129
     21 C16         3.3547   -1.7998   -8.7183 C.3       1 <0>        -0.0731
     22 C17         2.7979   -1.8471  -10.1179 C.ar      1 <0>        -0.1339
     23 C18         3.3459   -2.7013  -11.0629 C.ar      1 <0>        -0.0725
     24 C19         2.8014   -2.7112  -12.3378 C.ar      1 <0>        -0.1700
     25 C20         1.7381   -1.8753  -12.6226 C.ar      1 <0>         0.0941
     26 N2          1.2427   -1.0755  -11.6987 N.ar      1 <0>        -0.4831
     27 C21         1.7313   -1.0441  -10.4741 C.ar      1 <0>         0.1027
     28 H1          1.1646    1.8856    0.0674 H         1 <0>         0.0602
     29 H2         -0.4025    1.9102   -0.7764 H         1 <0>         0.0603
     30 H3         -0.3500    1.8821    1.0025 H         1 <0>         0.0589
     31 H4          0.6607   -0.3812    0.9369 H         1 <0>         0.0696
     32 H5         -0.9064   -0.3566    0.0931 H         1 <0>         0.0698
     33 H6          0.0577    1.1289   -2.4118 H         1 <0>         0.0762
     34 H7          0.5344   -0.3137   -3.3391 H         1 <0>         0.0804
     35 H8         -0.9801   -0.3172   -2.4039 H         1 <0>         0.0567
     36 H9          2.7866   -0.3764   -0.3757 H         1 <0>         0.0567
     37 H10         2.7340   -0.3483   -2.1547 H         1 <0>         0.0778
     38 H11         2.2574    1.0943   -1.2273 H         1 <0>         0.0768
     39 H12         0.4963   -4.1626   -0.5010 H         1 <0>         0.1559
     40 H13         0.0806   -5.4622   -1.6480 H         1 <0>         0.0745
     41 H14         2.7202   -5.1257   -0.1500 H         1 <0>         0.0685
     42 H15         1.4966   -6.3898    0.1243 H         1 <0>         0.0834
     43 H16         3.3467   -7.2625   -1.2632 H         1 <0>         0.0765
     44 H17         1.8360   -7.2053   -2.2023 H         1 <0>         0.0703
     45 H18         4.0288   -5.0820   -2.2522 H         1 <0>         0.0828
     46 H19         3.7579   -6.3144   -3.5085 H         1 <0>         0.0846
     47 H20         1.5181   -5.4145   -3.9689 H         1 <0>         0.1080
     48 H21         3.0491   -1.7774   -6.0097 H         1 <0>         0.0733
     49 H22         4.2562   -3.0099   -6.4482 H         1 <0>         0.0649
     50 H23         2.7696   -3.8216   -8.2592 H         1 <0>         0.0742
     51 H24         1.5625   -2.5892   -7.8207 H         1 <0>         0.0765
     52 H25         3.2118   -0.8018   -8.3040 H         1 <0>         0.0818
     53 H26         4.4189   -2.0342   -8.7425 H         1 <0>         0.0792
     54 H27         4.1772   -3.3434  -10.8118 H         1 <0>         0.1342
     55 H28         3.2032   -3.3636  -13.0990 H         1 <0>         0.1360
     56 H29         1.3082   -1.8770  -13.6133 H         1 <0>         0.1560
     57 H30         1.2959   -0.3796   -9.7425 H         1 <0>         0.1548
@<TRIPOS>BOND
     1    1    2 1
     2    1   28 1
     3    1   29 1
     4    1   30 1
     5    2    3 1
     6    2   31 1
     7    2   32 1
     8    3    4 1
     9    3    5 1
    10    3    6 1
    11    4   33 1
    12    4   34 1
    13    4   35 1
    14    5   36 1
    15    5   37 1
    16    5   38 1
    17    6    7 2
    18    6    8 1
    19    8    9 2
    20    8   10 am
    21   10   15 1
    22   10   11 1
    23   11   12 1
    24   11   39 1
    25   11   40 1
    26   12   13 1
    27   12   41 1
    28   12   42 1
    29   13   14 1
    30   13   43 1
    31   13   44 1
    32   14   15 1
    33   14   45 1
    34   14   46 1
    35   15   16 1
    36   15   47 1
    37   16   17 2
    38   16   18 1
    39   18   19 1
    40   19   20 1
    41   19   48 1
    42   19   49 1
    43   20   21 1
    44   20   50 1
    45   20   51 1
    46   21   22 1
    47   21   52 1
    48   21   53 1
    49   22   27 ar
    50   22   23 ar
    51   23   24 ar
    52   23   54 1
    53   24   25 ar
    54   24   55 1
    55   25   26 ar
    56   25   56 1
    57   26   27 ar
    58   27   57 1
@<TRIPOS>MOLECULE
CHEMBL108247__1
   57    58     0     0     0
SMALL
USER_CHARGES

@<TRIPOS>ATOM
      1 C1          1.2434    1.5667    0.5057 C.3       1 <0>        -0.1558
      2 C2          1.2791    0.0371    0.5031 C.3       1 <0>        -0.1082
      3 C3          1.5981   -0.4632   -0.9072 C.3       1 <0>        -0.0876
      4 C4          0.5195    0.0234   -1.8771 C.3       1 <0>        -0.1457
      5 C5          2.9600    0.0795   -1.3450 C.3       1 <0>        -0.1470
      6 C6          1.6332   -1.9698   -0.9098 C.2       1 <0>         0.3699
      7 O1          1.4246   -2.5805    0.1112 O.2       1 <0>        -0.4063
      8 C7          1.9255   -2.7065   -2.1725 C.2       1 <0>         0.4728
      9 O2          2.2802   -2.0988   -3.1614 O.2       1 <0>        -0.4781
     10 N1          1.7958   -4.0473   -2.2160 N.am      1 <0>        -0.5783
     11 C8          1.2217   -4.7810   -1.0798 C.3       1 <0>         0.0721
     12 C9          0.0663   -5.6496   -1.5869 C.3       1 <0>        -0.1394
     13 C10         0.5662   -6.5433   -2.7243 C.3       1 <0>        -0.1195
     14 C11         1.0590   -5.6714   -3.8815 C.3       1 <0>        -0.1252
     15 C12         2.2201   -4.8023   -3.4028 C.3       1 <0>         0.1499
     16 C13         2.6155   -3.8440   -4.4965 C.2       1 <0>         0.4773
     17 O3          1.7750   -3.1667   -5.0393 O.2       1 <0>        -0.4851
     18 O4          3.9015   -3.7429   -4.8677 O.3       1 <0>        -0.3537
     19 C14         4.2046   -2.8145   -5.9109 C.3       1 <0>         0.0726
     20 C15         5.7079   -2.8387   -6.1944 C.3       1 <0>        -0.1130
     21 C16         6.0324   -1.8447   -7.3113 C.3       1 <0>        -0.0731
     22 C17         7.5131   -1.8686   -7.5904 C.ar      1 <0>        -0.1338
     23 C18         8.3710   -1.0238   -6.9025 C.ar      1 <0>        -0.0722
     24 C19         9.7255   -1.0803   -7.1923 C.ar      1 <0>        -0.1698
     25 C20        10.1727   -1.9705   -8.1505 C.ar      1 <0>         0.0941
     26 N2          9.3277   -2.7588   -8.7854 N.ar      1 <0>        -0.4832
     27 C21         8.0338   -2.7366   -8.5312 C.ar      1 <0>         0.1023
     28 H1          2.2136    1.9533    0.1938 H         1 <0>         0.0601
     29 H2          0.4749    1.9133   -0.1853 H         1 <0>         0.0601
     30 H3          1.0161    1.9231    1.5104 H         1 <0>         0.0588
     31 H4          2.0475   -0.3096    1.1940 H         1 <0>         0.0695
     32 H5          0.3088   -0.3495    0.8149 H         1 <0>         0.0693
     33 H6          0.4940    1.1131   -1.8752 H         1 <0>         0.0769
     34 H7          0.7467   -0.3330   -2.8818 H         1 <0>         0.0762
     35 H8         -0.4508   -0.3632   -1.5652 H         1 <0>         0.0569
     36 H9          3.7284   -0.2672   -0.6540 H         1 <0>         0.0560
     37 H10         3.1872   -0.2770   -2.3497 H         1 <0>         0.0807
     38 H11         2.9345    1.1692   -1.3431 H         1 <0>         0.0752
     39 H12         1.9860   -5.4154   -0.6308 H         1 <0>         0.0784
     40 H13         0.8493   -4.0738   -0.3387 H         1 <0>         0.1353
     41 H14        -0.3061   -6.2713   -0.7727 H         1 <0>         0.0847
     42 H15        -0.7365   -5.0096   -1.9531 H         1 <0>         0.0694
     43 H16         1.3855   -7.1654   -2.3640 H         1 <0>         0.0709
     44 H17        -0.2479   -7.1800   -3.0705 H         1 <0>         0.0772
     45 H18         1.3931   -6.3084   -4.7004 H         1 <0>         0.0855
     46 H19         0.2469   -5.0311   -4.2261 H         1 <0>         0.0839
     47 H20         3.0676   -5.4385   -3.1474 H         1 <0>         0.1079
     48 H21         3.6601   -3.0918   -6.8136 H         1 <0>         0.0661
     49 H22         3.9092   -1.8118   -5.6020 H         1 <0>         0.0724
     50 H23         6.2523   -2.5615   -5.2917 H         1 <0>         0.0746
     51 H24         6.0033   -3.8415   -6.5033 H         1 <0>         0.0757
     52 H25         5.4879   -2.1220   -8.2139 H         1 <0>         0.0812
     53 H26         5.7370   -0.8420   -7.0024 H         1 <0>         0.0799
     54 H27         7.9929   -0.3378   -6.1589 H         1 <0>         0.1343
     55 H28        10.4224   -0.4366   -6.6761 H         1 <0>         0.1360
     56 H29        11.2264   -2.0207   -8.3820 H         1 <0>         0.1560
     57 H30         7.3729   -3.4011   -9.0678 H         1 <0>         0.1547
@<TRIPOS>BOND
     1    1    2 1
     2    1   28 1
     3    1   29 1
     4    1   30 1
     5    2    3 1
     6    2   31 1
     7    2   32 1
     8    3    4 1
     9    3    5 1
    10    3    6 1
    11    4   33 1
    12    4   34 1
    13    4   35 1
    14    5   36 1
    15    5   37 1
    16    5   38 1
    17    6    7 2
    18    6    8 1
    19    8    9 2
    20    8   10 am
    21   10   15 1
    22   10   11 1
    23   11   12 1
    24   11   39 1
    25   11   40 1
    26   12   13 1
    27   12   41 1
    28   12   42 1
    29   13   14 1
    30   13   43 1
    31   13   44 1
    32   14   15 1
    33   14   45 1
    34   14   46 1
    35   15   16 1
    36   15   47 1
    37   16   17 2
    38   16   18 1
    39   18   19 1
    40   19   20 1
    41   19   48 1
    42   19   49 1
    43   20   21 1
    44   20   50 1
    45   20   51 1
    46   21   22 1
    47   21   52 1
    48   21   53 1
    49   22   27 ar
    50   22   23 ar
    51   23   24 ar
    52   23   54 1
    53   24   25 ar
    54   24   55 1
    55   25   26 ar
    56   25   56 1
    57   26   27 ar
    58   27   57 1
@<TRIPOS>MOLECULE
CHEMBL119155
   60    61     0     0     0
SMALL
USER_CHARGES

@<TRIPOS>ATOM
      1 C1         -0.0187    1.5258    0.0104 C.3       1 <0>        -0.1556
      2 C2          0.0021   -0.0041    0.0020 C.3       1 <0>        -0.1078
      3 C3         -1.4333   -0.5336    0.0129 C.3       1 <0>        -0.0879
      4 C4         -2.1494   -0.0402    1.2717 C.3       1 <0>        -0.1455
      5 C5         -2.1733   -0.0268   -1.2266 C.3       1 <0>        -0.1459
      6 C6         -1.4129   -2.0405    0.0046 C.2       1 <0>         0.3665
      7 O1         -0.3588   -2.6301   -0.0086 O.2       1 <0>        -0.4136
      8 C7         -2.6937   -2.8034    0.0127 C.2       1 <0>         0.4966
      9 O2         -3.7529   -2.2110    0.0260 O.2       1 <0>        -0.4991
     10 N1         -2.6754   -4.1510    0.0053 N.am      1 <0>        -0.5856
     11 C8         -1.4659   -4.9939   -0.0043 C.3       1 <0>         0.0943
     12 C9         -1.9192   -6.3449    0.6032 C.3       1 <0>        -0.1373
     13 C10        -3.3521   -6.4817    0.0242 C.3       1 <0>        -0.1195
     14 C11        -3.8584   -5.0241    0.0119 C.3       1 <0>         0.0824
     15 H1         -4.4540   -4.8481   -0.8838 H         1 <0>         0.1085
     16 C12        -4.6863   -4.7560    1.2422 C.2       1 <0>         0.3516
     17 O3         -4.2147   -4.1341    2.1637 O.2       1 <0>        -0.4312
     18 C13        -6.1028   -5.2641    1.3226 C.3       1 <0>        -0.1675
     19 C14        -6.7145   -4.8590    2.6653 C.3       1 <0>        -0.1092
     20 C15        -8.1526   -5.3747    2.7469 C.3       1 <0>        -0.1153
     21 C16        -8.7643   -4.9696    4.0895 C.3       1 <0>        -0.0891
     22 C17       -10.1808   -5.4777    4.1699 C.ar      1 <0>        -0.0615
     23 C18       -11.2247   -4.6918    3.7139 C.ar      1 <0>         0.0916
     24 C19       -12.5278   -5.1594    3.7874 C.ar      1 <0>         0.1478
     25 C20       -12.7847   -6.4120    4.3168 C.ar      1 <0>        -0.2215
     26 C21       -11.7408   -7.1980    4.7724 C.ar      1 <0>         0.1476
     27 C22       -10.4372   -6.7324    4.6945 C.ar      1 <0>         0.0913
     28 F1         -9.4176   -7.5018    5.1346 F         1 <0>        -0.0992
     29 F2        -11.9915   -8.4208    5.2893 F         1 <0>        -0.0926
     30 C23       -14.2012   -6.9198    4.3976 C.3       1 <0>         0.5226
     31 F3        -14.5172   -7.6095    3.2222 F         1 <0>        -0.1621
     32 F4        -14.3257   -7.7822    5.4921 F         1 <0>        -0.1602
     33 F5        -15.0759   -5.8391    4.5537 F         1 <0>        -0.1601
     34 F6        -13.5469   -4.3921    3.3426 F         1 <0>        -0.0923
     35 F7        -10.9739   -3.4689    3.1974 F         1 <0>        -0.0985
     36 H2          1.0039    1.9031    0.0027 H         1 <0>         0.0582
     37 H3         -0.5459    1.8868   -0.8726 H         1 <0>         0.0600
     38 H4         -0.5289    1.8773    0.9072 H         1 <0>         0.0601
     39 H5          0.5123   -0.3556   -0.8948 H         1 <0>         0.0686
     40 H6          0.5293   -0.3651    0.8851 H         1 <0>         0.0685
     41 H7         -2.1642    1.0497    1.2777 H         1 <0>         0.0748
     42 H8         -3.1720   -0.4175    1.2794 H         1 <0>         0.0782
     43 H9         -1.6223   -0.4013    2.1547 H         1 <0>         0.0558
     44 H10        -1.6631   -0.3783   -2.1234 H         1 <0>         0.0558
     45 H11        -3.1959   -0.4041   -1.2189 H         1 <0>         0.0777
     46 H12        -2.1881    1.0631   -1.2207 H         1 <0>         0.0756
     47 H13        -1.1113   -5.1369   -1.0251 H         1 <0>         0.0782
     48 H14        -0.6855   -4.5445    0.6098 H         1 <0>         0.0979
     49 H15        -1.2807   -7.1601    0.2629 H         1 <0>         0.0943
     50 H16        -1.9407   -6.2960    1.6919 H         1 <0>         0.0794
     51 H17        -3.3225   -6.8921   -0.9852 H         1 <0>         0.0938
     52 H18        -3.9734   -7.0979    0.6740 H         1 <0>         0.0898
     53 H19        -6.6898   -4.8336    0.5113 H         1 <0>         0.1022
     54 H20        -6.1046   -6.3506    1.2356 H         1 <0>         0.1008
     55 H21        -6.1275   -5.2894    3.4766 H         1 <0>         0.0725
     56 H22        -6.7127   -3.7724    2.7523 H         1 <0>         0.0742
     57 H23        -8.7396   -4.9443    1.9356 H         1 <0>         0.0722
     58 H24        -8.1544   -6.4613    2.6599 H         1 <0>         0.0717
     59 H25        -8.1773   -5.4001    4.9008 H         1 <0>         0.0982
     60 H26        -8.7625   -3.8831    4.1766 H         1 <0>         0.0986
@<TRIPOS>BOND
     1    1    2 1
     2    1   36 1
     3    1   37 1
     4    1   38 1
     5    2    3 1
     6    2   39 1
     7    2   40 1
     8    3    4 1
     9    3    5 1
    10    3    6 1
    11    4   41 1
    12    4   42 1
    13    4   43 1
    14    5   44 1
    15    5   45 1
    16    5   46 1
    17    6    7 2
    18    6    8 1
    19    8    9 2
    20    8   10 am
    21   10   14 1
    22   10   11 1
    23   11   12 1
    24   11   47 1
    25   11   48 1
    26   12   13 1
    27   12   49 1
    28   12   50 1
    29   13   14 1
    30   13   51 1
    31   13   52 1
    32   14   15 1
    33   14   16 1
    34   16   17 2
    35   16   18 1
    36   18   19 1
    37   18   53 1
    38   18   54 1
    39   19   20 1
    40   19   55 1
    41   19   56 1
    42   20   21 1
    43   20   57 1
    44   20   58 1
    45   21   22 1
    46   21   59 1
    47   21   60 1
    48   22   27 ar
    49   22   23 ar
    50   23   24 ar
    51   23   35 1
    52   24   25 ar
    53   24   34 1
    54   25   26 ar
    55   25   30 1
    56   26   27 ar
    57   26   29 1
    58   27   28 1
    59   30   31 1
    60   30   32 1
    61   30   33 1
@<TRIPOS>MOLECULE
CHEMBL150062
   70    73     0     0     0
SMALL
USER_CHARGES

@<TRIPOS>ATOM
      1 C1         -1.1934    1.4659   -3.8870 C.3       1 <0>         0.0206
      2 O1         -0.9776    1.3645   -2.4780 O.3       1 <0>        -0.2977
      3 C2         -2.0164    0.9135   -1.7252 C.ar      1 <0>         0.1374
      4 C3         -3.2093    0.5725   -2.3303 C.ar      1 <0>        -0.1658
      5 C4         -4.2789    0.1074   -1.5540 C.ar      1 <0>        -0.0995
      6 C5         -4.1333   -0.0098   -0.1655 C.ar      1 <0>        -0.1730
      7 C6         -2.9375    0.3331    0.4328 C.ar      1 <0>         0.1399
      8 C7         -1.8734    0.7905   -0.3436 C.ar      1 <0>         0.0726
      9 O2         -0.6967    1.1216    0.2476 O.3       1 <0>        -0.3112
     10 C8         -0.5457    2.4755    0.6791 C.3       1 <0>         0.0359
     11 O3         -2.7953    0.2196    1.7805 O.3       1 <0>        -0.2973
     12 C9         -3.9238   -0.2607    2.5138 C.3       1 <0>         0.0225
     13 C10        -5.5514   -0.2564   -2.1949 C.2       1 <0>         0.4053
     14 O4         -5.7095   -0.0638   -3.3833 O.2       1 <0>        -0.4079
     15 C11        -6.6485   -0.8623   -1.3848 C.2       1 <0>         0.4899
     16 O5         -6.6685   -2.0601   -1.1898 O.2       1 <0>        -0.4748
     17 N1         -7.6172   -0.0794   -0.8698 N.am      1 <0>        -0.5941
     18 C12        -7.6739    1.3525   -1.1940 C.3       1 <0>         0.1075
     19 C13        -7.7133    2.1525    0.1119 C.3       1 <0>        -0.1391
     20 C14        -8.8764    1.6568    0.9742 C.3       1 <0>        -0.1185
     21 C15        -8.6655    0.1806    1.3183 C.3       1 <0>        -0.1231
     22 C16        -8.6401   -0.6429    0.0217 C.3       1 <0>         0.1554
     23 C17        -8.3003   -2.0766    0.3381 C.2       1 <0>         0.4687
     24 O6         -7.1884   -2.3655    0.7124 O.2       1 <0>        -0.4710
     25 O7         -9.2328   -3.0327    0.2040 O.3       1 <0>        -0.3451
     26 C18        -8.8413   -4.3699    0.5212 C.3       1 <0>         0.1140
     27 C19       -10.0098   -5.2984    0.3127 C.ar      1 <0>        -0.0822
     28 C20       -10.8871   -5.5490    1.3520 C.ar      1 <0>        -0.0932
     29 C21       -11.9604   -6.3999    1.1639 C.ar      1 <0>        -0.1057
     30 C22       -12.1588   -7.0025   -0.0634 C.ar      1 <0>        -0.1107
     31 C23       -11.2802   -6.7529   -1.1076 C.ar      1 <0>         0.0834
     32 C24       -10.2069   -5.8938   -0.9178 C.ar      1 <0>        -0.1066
     33 O8        -11.4732   -7.3444   -2.3156 O.3       1 <0>        -0.2579
     34 C25       -10.6711   -8.3891   -2.6498 C.ar      1 <0>         0.1194
     35 C26        -9.7740   -8.9007   -1.7230 C.ar      1 <0>        -0.1941
     36 C27        -8.9596   -9.9628   -2.0653 C.ar      1 <0>        -0.0820
     37 C28        -9.0376  -10.5158   -3.3302 C.ar      1 <0>        -0.1516
     38 C29        -9.9304  -10.0076   -4.2557 C.ar      1 <0>        -0.0824
     39 C30       -10.7517   -8.9499   -3.9164 C.ar      1 <0>        -0.1452
     40 H1         -0.2881    1.8371   -4.3674 H         1 <0>         0.1079
     41 H2         -1.4409    0.4831   -4.2882 H         1 <0>         0.0610
     42 H3         -2.0158    2.1547   -4.0800 H         1 <0>         0.0600
     43 H4         -3.3182    0.6644   -3.4009 H         1 <0>         0.1505
     44 H5         -4.9558   -0.3676    0.4361 H         1 <0>         0.1462
     45 H6         -1.3180    2.7118    1.4111 H         1 <0>         0.0475
     46 H7          0.4368    2.6048    1.1329 H         1 <0>         0.0971
     47 H8         -0.6409    3.1426   -0.1776 H         1 <0>         0.0476
     48 H9         -4.7678    0.4126    2.3640 H         1 <0>         0.0559
     49 H10        -4.1878   -1.2581    2.1622 H         1 <0>         0.0637
     50 H11        -3.6766   -0.3030    3.5746 H         1 <0>         0.1070
     51 H12        -6.7903    1.6325   -1.7675 H         1 <0>         0.0856
     52 H13        -8.5713    1.5600   -1.7768 H         1 <0>         0.0873
     53 H14        -6.7761    2.0150    0.6512 H         1 <0>         0.0722
     54 H15        -7.8522    3.2099   -0.1134 H         1 <0>         0.0876
     55 H16        -8.9217    2.2410    1.8933 H         1 <0>         0.0802
     56 H17        -9.8106    1.7717    0.4246 H         1 <0>         0.0742
     57 H18        -7.7193    0.0616    1.8463 H         1 <0>         0.0802
     58 H19        -9.4822   -0.1656    1.9518 H         1 <0>         0.0899
     59 H20        -9.6147   -0.5949   -0.4640 H         1 <0>         0.1133
     60 H21        -8.0180   -4.6708   -0.1267 H         1 <0>         0.0817
     61 H22        -8.5207   -4.4174    1.5619 H         1 <0>         0.0797
     62 H23       -10.7333   -5.0794    2.3123 H         1 <0>         0.1317
     63 H24       -12.6440   -6.5939    1.9771 H         1 <0>         0.1369
     64 H25       -12.9970   -7.6677   -0.2096 H         1 <0>         0.1356
     65 H26        -9.5239   -5.6946   -1.7303 H         1 <0>         0.1322
     66 H27        -9.7121   -8.4687   -0.7351 H         1 <0>         0.1271
     67 H28        -8.2612  -10.3613   -1.3443 H         1 <0>         0.1264
     68 H29        -8.3998  -11.3458   -3.5958 H         1 <0>         0.1260
     69 H30        -9.9891  -10.4411   -5.2431 H         1 <0>         0.1320
     70 H31       -11.4522   -8.5565   -4.6381 H         1 <0>         0.1328
@<TRIPOS>BOND
     1    1    2 1
     2    1   40 1
     3    1   41 1
     4    1   42 1
     5    2    3 1
     6    3    8 ar
     7    3    4 ar
     8    4    5 ar
     9    4   43 1
    10    5    6 ar
    11    5   13 1
    12    6    7 ar
    13    6   44 1
    14    7    8 ar
    15    7   11 1
    16    8    9 1
    17    9   10 1
    18   10   45 1
    19   10   46 1
    20   10   47 1
    21   11   12 1
    22   12   48 1
    23   12   49 1
    24   12   50 1
    25   13   14 2
    26   13   15 1
    27   15   16 2
    28   15   17 am
    29   17   22 1
    30   17   18 1
    31   18   19 1
    32   18   51 1
    33   18   52 1
    34   19   20 1
    35   19   53 1
    36   19   54 1
    37   20   21 1
    38   20   55 1
    39   20   56 1
    40   21   22 1
    41   21   57 1
    42   21   58 1
    43   22   23 1
    44   22   59 1
    45   23   24 2
    46   23   25 1
    47   25   26 1
    48   26   27 1
    49   26   60 1
    50   26   61 1
    51   27   32 ar
    52   27   28 ar
    53   28   29 ar
    54   28   62 1
    55   29   30 ar
    56   29   63 1
    57   30   31 ar
    58   30   64 1
    59   31   32 ar
    60   31   33 1
    61   32   65 1
    62   33   34 1
    63   34   39 ar
    64   34   35 ar
    65   35   36 ar
    66   35   66 1
    67   36   37 ar
    68   36   67 1
    69   37   38 ar
    70   37   68 1
    71   38   39 ar
    72   38   69 1
    73   39   70 1
@<TRIPOS>MOLECULE
CHEMBL150062__1
   70    73     0     0     0
SMALL
USER_CHARGES

@<TRIPOS>ATOM
      1 C1         -2.4459    2.1855    5.4495 C.3       1 <0>         0.0202
      2 O1         -3.5697    1.7494    6.2169 O.3       1 <0>        -0.2971
      3 C2         -4.5866    1.1533    5.5387 C.ar      1 <0>         0.1395
      4 C3         -4.4996    0.9884    4.1709 C.ar      1 <0>        -0.1650
      5 C4         -5.5475    0.3738    3.4731 C.ar      1 <0>        -0.0970
      6 C5         -6.6804   -0.0715    4.1668 C.ar      1 <0>        -0.1779
      7 C6         -6.7604    0.0967    5.5346 C.ar      1 <0>         0.1413
      8 C7         -5.7132    0.7041    6.2265 C.ar      1 <0>         0.0726
      9 O2         -5.7929    0.8629    7.5727 O.3       1 <0>        -0.3110
     10 C8         -6.3849    2.0730    8.0494 C.3       1 <0>         0.0356
     11 O3         -7.8597   -0.3352    6.2088 O.3       1 <0>        -0.2965
     12 C9         -8.8921   -0.9534    5.4381 C.3       1 <0>         0.0218
     13 C10        -5.4588    0.1968    2.0159 C.2       1 <0>         0.4034
     14 O4         -4.5216    0.6665    1.4033 O.2       1 <0>        -0.4042
     15 C11        -6.5205   -0.5601    1.2902 C.2       1 <0>         0.4899
     16 O5         -6.4567   -1.7696    1.2103 O.2       1 <0>        -0.4772
     17 N1         -7.5503    0.0992    0.7234 N.am      1 <0>        -0.5920
     18 C12        -7.5870    1.5680    0.7187 C.3       1 <0>         0.1060
     19 C13        -7.7824    2.0518   -0.7216 C.3       1 <0>        -0.1392
     20 C14        -9.0291    1.3900   -1.3131 C.3       1 <0>        -0.1172
     21 C15        -8.8409   -0.1286   -1.3350 C.3       1 <0>        -0.1280
     22 C16        -8.6545   -0.6370    0.0930 C.3       1 <0>         0.1578
     23 C17        -8.3297   -2.1083    0.0649 C.2       1 <0>         0.4650
     24 O6         -7.3179   -2.4934   -0.4716 O.2       1 <0>        -0.4643
     25 O7         -9.1643   -2.9910    0.6358 O.3       1 <0>        -0.3478
     26 C18        -8.7937   -4.3696    0.5716 C.3       1 <0>         0.1132
     27 C19        -9.8427   -5.2044    1.2598 C.ar      1 <0>        -0.0808
     28 C20        -9.7352   -5.4715    2.6125 C.ar      1 <0>        -0.0926
     29 C21       -10.6961   -6.2366    3.2470 C.ar      1 <0>        -0.1050
     30 C22       -11.7664   -6.7368    2.5307 C.ar      1 <0>        -0.1107
     31 C23       -11.8766   -6.4703    1.1737 C.ar      1 <0>         0.0832
     32 C24       -10.9137   -5.6972    0.5404 C.ar      1 <0>        -0.1083
     33 O8        -12.9283   -6.9611    0.4669 O.3       1 <0>        -0.2578
     34 C25       -12.7085   -8.0272   -0.3464 C.ar      1 <0>         0.1193
     35 C26       -11.4728   -8.6585   -0.3460 C.ar      1 <0>        -0.1943
     36 C27       -11.2519   -9.7421   -1.1739 C.ar      1 <0>        -0.0820
     37 C28       -12.2606  -10.1973   -2.0028 C.ar      1 <0>        -0.1516
     38 C29       -13.4927   -9.5697   -2.0055 C.ar      1 <0>        -0.0825
     39 C30       -13.7210   -8.4899   -1.1748 C.ar      1 <0>        -0.1453
     40 H1         -1.7095    2.6422    6.1108 H         1 <0>         0.1084
     41 H2         -1.9983    1.3306    4.9426 H         1 <0>         0.0614
     42 H3         -2.7727    2.9163    4.7097 H         1 <0>         0.0604
     43 H4         -3.6250    1.3332    3.6393 H         1 <0>         0.1512
     44 H5         -7.4902   -0.5455    3.6321 H         1 <0>         0.1407
     45 H6         -7.4097    2.1443    7.6849 H         1 <0>         0.0479
     46 H7         -6.3862    2.0721    9.1394 H         1 <0>         0.0975
     47 H8         -5.8104    2.9257    7.6874 H         1 <0>         0.0479
     48 H9         -9.2629   -0.2475    4.6949 H         1 <0>         0.0580
     49 H10        -8.4923   -1.8339    4.9351 H         1 <0>         0.0599
     50 H11        -9.7085   -1.2504    6.0963 H         1 <0>         0.1088
     51 H12        -8.4156    1.9148    1.3362 H         1 <0>         0.0862
     52 H13        -6.6479    1.9583    1.1110 H         1 <0>         0.0866
     53 H14        -7.9076    3.1346   -0.7279 H         1 <0>         0.0873
     54 H15        -6.9102    1.7825   -1.3173 H         1 <0>         0.0749
     55 H16        -9.8970    1.6396   -0.7026 H         1 <0>         0.0731
     56 H17        -9.1844    1.7514   -2.3297 H         1 <0>         0.0801
     57 H18        -9.7195   -0.5977   -1.7778 H         1 <0>         0.0890
     58 H19        -7.9588   -0.3774   -1.9249 H         1 <0>         0.0835
     59 H20        -9.5721   -0.4741    0.6584 H         1 <0>         0.1125
     60 H21        -8.7123   -4.6757   -0.4713 H         1 <0>         0.0769
     61 H22        -7.8335   -4.5112    1.0678 H         1 <0>         0.0841
     62 H23        -8.8989   -5.0821    3.1740 H         1 <0>         0.1312
     63 H24       -10.6097   -6.4438    4.3034 H         1 <0>         0.1368
     64 H25       -12.5164   -7.3350    3.0267 H         1 <0>         0.1355
     65 H26       -10.9994   -5.4848   -0.5151 H         1 <0>         0.1321
     66 H27       -10.6844   -8.3029    0.3007 H         1 <0>         0.1273
     67 H28       -10.2904  -10.2338   -1.1739 H         1 <0>         0.1264
     68 H29       -12.0857  -11.0444   -2.6495 H         1 <0>         0.1260
     69 H30       -14.2788   -9.9271   -2.6542 H         1 <0>         0.1320
     70 H31       -14.6850   -8.0031   -1.1737 H         1 <0>         0.1328
@<TRIPOS>BOND
     1    1    2 1
     2    1   40 1
     3    1   41 1
     4    1   42 1
     5    2    3 1
     6    3    8 ar
     7    3    4 ar
     8    4    5 ar
     9    4   43 1
    10    5    6 ar
    11    5   13 1
    12    6    7 ar
    13    6   44 1
    14    7    8 ar
    15    7   11 1
    16    8    9 1
    17    9   10 1
    18   10   45 1
    19   10   46 1
    20   10   47 1
    21   11   12 1
    22   12   48 1
    23   12   49 1
    24   12   50 1
    25   13   14 2
    26   13   15 1
    27   15   16 2
    28   15   17 am
    29   17   22 1
    30   17   18 1
    31   18   19 1
    32   18   51 1
    33   18   52 1
    34   19   20 1
    35   19   53 1
    36   19   54 1
    37   20   21 1
    38   20   55 1
    39   20   56 1
    40   21   22 1
    41   21   57 1
    42   21   58 1
    43   22   23 1
    44   22   59 1
    45   23   24 2
    46   23   25 1
    47   25   26 1
    48   26   27 1
    49   26   60 1
    50   26   61 1
    51   27   32 ar
    52   27   28 ar
    53   28   29 ar
    54   28   62 1
    55   29   30 ar
    56   29   63 1
    57   30   31 ar
    58   30   64 1
    59   31   32 ar
    60   31   33 1
    61   32   65 1
    62   33   34 1
    63   34   39 ar
    64   34   35 ar
    65   35   36 ar
    66   35   66 1
    67   36   37 ar
    68   36   67 1
    69   37   38 ar
    70   37   68 1
    71   38   39 ar
    72   38   69 1
    73   39   70 1
@<TRIPOS>MOLECULE
CHEMBL149314
   55    56     0     0     0
SMALL
USER_CHARGES

@<TRIPOS>ATOM
      1 C1         -0.0187    1.5258    0.0104 C.3       1 <0>        -0.1556
      2 C2          0.0021   -0.0041    0.0020 C.3       1 <0>        -0.1076
      3 C3          0.7182   -0.4975   -1.2568 C.3       1 <0>        -0.0877
      4 C4         -0.0218    0.0093   -2.4963 C.3       1 <0>        -0.1464
      5 C5          2.1536    0.0321   -1.2676 C.3       1 <0>        -0.1459
      6 C6          0.7386   -2.0043   -1.2651 C.2       1 <0>         0.3685
      7 O1          0.2326   -2.6202   -0.3576 O.2       1 <0>        -0.4128
      8 C7          1.3836   -2.7349   -2.3934 C.2       1 <0>         0.4994
      9 O2          1.8921   -2.1161   -3.3052 O.2       1 <0>        -0.4891
     10 N1          1.4018   -4.0825   -2.4008 N.am      1 <0>        -0.5869
     11 C8          0.8189   -4.9554   -1.3656 C.3       1 <0>         0.0927
     12 C9          0.5402   -6.2967   -2.0888 C.3       1 <0>        -0.1345
     13 C10         1.7600   -6.3955   -3.0427 C.3       1 <0>        -0.1188
     14 C11         2.0009   -4.9256   -3.4458 C.3       1 <0>         0.1443
     15 C12         3.4811   -4.6574   -3.5347 C.2       1 <0>         0.4537
     16 O3          3.9929   -3.8444   -2.8018 O.2       1 <0>        -0.4868
     17 O4          4.2311   -5.3216   -4.4281 O.3       1 <0>        -0.3490
     18 C13         5.6270   -5.0172   -4.4574 C.3       1 <0>         0.0659
     19 C14         6.3117   -5.8662   -5.5303 C.3       1 <0>        -0.1116
     20 C15         7.8062   -5.5403   -5.5617 C.3       1 <0>        -0.0784
     21 C16         8.4807   -6.3766   -6.6185 C.ar      1 <0>        -0.0832
     22 C17         8.9891   -7.6207   -6.2951 C.ar      1 <0>        -0.1165
     23 C18         9.6078   -8.3878   -7.2645 C.ar      1 <0>        -0.1180
     24 C19         9.7176   -7.9110   -8.5573 C.ar      1 <0>        -0.1231
     25 C20         9.2083   -6.6673   -8.8809 C.ar      1 <0>        -0.1178
     26 C21         8.5859   -5.9020   -7.9125 C.ar      1 <0>        -0.1162
     27 H1          1.0039    1.9031    0.0027 H         1 <0>         0.0601
     28 H2         -0.5459    1.8868   -0.8726 H         1 <0>         0.0601
     29 H3         -0.5289    1.8773    0.9072 H         1 <0>         0.0583
     30 H4          0.5293   -0.3651    0.8851 H         1 <0>         0.0688
     31 H5         -1.0205   -0.3814    0.0098 H         1 <0>         0.0689
     32 H6         -0.0366    1.0992   -2.4903 H         1 <0>         0.0758
     33 H7          0.4884   -0.3422   -3.3931 H         1 <0>         0.0777
     34 H8         -1.0444   -0.3679   -2.4886 H         1 <0>         0.0565
     35 H9          2.6808   -0.3290   -0.3846 H         1 <0>         0.0561
     36 H10         2.6638   -0.3194   -2.1644 H         1 <0>         0.0786
     37 H11         2.1388    1.1220   -1.2617 H         1 <0>         0.0750
     38 H12         1.5279   -5.1037   -0.5511 H         1 <0>         0.0766
     39 H13        -0.1100   -4.5279   -0.9880 H         1 <0>         0.1034
     40 H14         0.5286   -7.1265   -1.3821 H         1 <0>         0.0958
     41 H15        -0.3926   -6.2511   -2.6508 H         1 <0>         0.0854
     42 H16         2.6258   -6.8030   -2.5206 H         1 <0>         0.0851
     43 H17         1.5172   -6.9982   -3.9179 H         1 <0>         0.1032
     44 H18         1.5264   -4.7199   -4.4053 H         1 <0>         0.1208
     45 H19         5.7637   -3.9607   -4.6881 H         1 <0>         0.0696
     46 H20         6.0672   -5.2366   -3.4847 H         1 <0>         0.0682
     47 H21         6.1750   -6.9227   -5.2996 H         1 <0>         0.0769
     48 H22         5.8715   -5.6468   -6.5030 H         1 <0>         0.0773
     49 H23         7.9429   -4.4838   -5.7924 H         1 <0>         0.0771
     50 H24         8.2465   -5.7597   -4.5890 H         1 <0>         0.0767
     51 H25         8.9033   -7.9932   -5.2850 H         1 <0>         0.1215
     52 H26        10.0057   -9.3595   -7.0116 H         1 <0>         0.1223
     53 H27        10.2016   -8.5100   -9.3145 H         1 <0>         0.1217
     54 H28         9.2944   -6.2946   -9.8909 H         1 <0>         0.1225
     55 H29         8.1847   -4.9319   -8.1662 H         1 <0>         0.1218
@<TRIPOS>BOND
     1    1    2 1
     2    1   27 1
     3    1   28 1
     4    1   29 1
     5    2    3 1
     6    2   30 1
     7    2   31 1
     8    3    4 1
     9    3    5 1
    10    3    6 1
    11    4   32 1
    12    4   33 1
    13    4   34 1
    14    5   35 1
    15    5   36 1
    16    5   37 1
    17    6    7 2
    18    6    8 1
    19    8    9 2
    20    8   10 am
    21   10   14 1
    22   10   11 1
    23   11   12 1
    24   11   38 1
    25   11   39 1
    26   12   13 1
    27   12   40 1
    28   12   41 1
    29   13   14 1
    30   13   42 1
    31   13   43 1
    32   14   15 1
    33   14   44 1
    34   15   16 2
    35   15   17 1
    36   17   18 1
    37   18   19 1
    38   18   45 1
    39   18   46 1
    40   19   20 1
    41   19   47 1
    42   19   48 1
    43   20   21 1
    44   20   49 1
    45   20   50 1
    46   21   26 ar
    47   21   22 ar
    48   22   23 ar
    49   22   51 1
    50   23   24 ar
    51   23   52 1
    52   24   25 ar
    53   24   53 1
    54   25   26 ar
    55   25   54 1
    56   26   55 1
@<TRIPOS>MOLECULE
CHEMBL149314__1
   55    56     0     0     0
SMALL
USER_CHARGES

@<TRIPOS>ATOM
      1 C1         -0.0187    1.5258    0.0104 C.3       1 <0>        -0.1556
      2 C2          0.0021   -0.0041    0.0020 C.3       1 <0>        -0.1076
      3 C3          0.7182   -0.4975   -1.2568 C.3       1 <0>        -0.0877
      4 C4         -0.0218    0.0093   -2.4963 C.3       1 <0>        -0.1459
      5 C5          2.1536    0.0321   -1.2676 C.3       1 <0>        -0.1464
      6 C6          0.7386   -2.0043   -1.2651 C.2       1 <0>         0.3686
      7 O1          0.2326   -2.6202   -0.3576 O.2       1 <0>        -0.4128
      8 C7          1.3836   -2.7349   -2.3934 C.2       1 <0>         0.4993
      9 O2          1.8921   -2.1161   -3.3052 O.2       1 <0>        -0.4890
     10 N1          1.4018   -4.0825   -2.4008 N.am      1 <0>        -0.5867
     11 C8          0.8189   -4.9554   -1.3656 C.3       1 <0>         0.0921
     12 C9          1.6032   -6.2863   -1.4814 C.3       1 <0>        -0.1342
     13 C10         1.8073   -6.3951   -3.0156 C.3       1 <0>        -0.1186
     14 C11         2.0009   -4.9256   -3.4458 C.3       1 <0>         0.1438
     15 C12         1.3099   -4.6788   -4.7621 C.2       1 <0>         0.4539
     16 O3          0.4061   -3.8798   -4.8294 O.2       1 <0>        -0.4867
     17 O4          1.6986   -5.3465   -5.8597 O.3       1 <0>        -0.3489
     18 C13         0.9995   -5.0628   -7.0733 C.3       1 <0>         0.0659
     19 C14         1.5783   -5.9129   -8.2060 C.3       1 <0>        -0.1116
     20 C15         0.8298   -5.6090   -9.5054 C.3       1 <0>        -0.0783
     21 C16         1.4000   -6.4464  -10.6211 C.ar      1 <0>        -0.0832
     22 C17         2.4511   -5.9648  -11.3789 C.ar      1 <0>        -0.1162
     23 C18         2.9741   -6.7329  -12.4024 C.ar      1 <0>        -0.1178
     24 C19         2.4463   -7.9826  -12.6677 C.ar      1 <0>        -0.1231
     25 C20         1.3958   -8.4646  -11.9093 C.ar      1 <0>        -0.1180
     26 C21         0.8757   -7.6983  -10.8831 C.ar      1 <0>        -0.1165
     27 H1          1.0039    1.9031    0.0027 H         1 <0>         0.0601
     28 H2         -0.5459    1.8868   -0.8726 H         1 <0>         0.0601
     29 H3         -0.5289    1.8773    0.9072 H         1 <0>         0.0583
     30 H4          0.5293   -0.3651    0.8851 H         1 <0>         0.0689
     31 H5         -1.0205   -0.3814    0.0098 H         1 <0>         0.0688
     32 H6         -0.0366    1.0992   -2.4903 H         1 <0>         0.0750
     33 H7          0.4884   -0.3422   -3.3931 H         1 <0>         0.0786
     34 H8         -1.0444   -0.3679   -2.4886 H         1 <0>         0.0561
     35 H9          2.6808   -0.3290   -0.3846 H         1 <0>         0.0565
     36 H10         2.6638   -0.3194   -2.1644 H         1 <0>         0.0776
     37 H11         2.1388    1.1220   -1.2617 H         1 <0>         0.0758
     38 H12         0.9587   -4.5174   -0.3773 H         1 <0>         0.1041
     39 H13        -0.2405   -5.1211   -1.5616 H         1 <0>         0.0763
     40 H14         2.5602   -6.2221   -0.9635 H         1 <0>         0.0855
     41 H15         1.0126   -7.1218   -1.1056 H         1 <0>         0.0958
     42 H16         2.6934   -6.9867   -3.2458 H         1 <0>         0.1034
     43 H17         0.9241   -6.8197   -3.4930 H         1 <0>         0.0844
     44 H18         3.0644   -4.7047   -3.5358 H         1 <0>         0.1206
     45 H19        -0.0575   -5.2969   -6.9469 H         1 <0>         0.0682
     46 H20         1.1109   -4.0065   -7.3183 H         1 <0>         0.0696
     47 H21         2.6354   -5.6787   -8.3324 H         1 <0>         0.0773
     48 H22         1.4670   -6.9691   -7.9610 H         1 <0>         0.0769
     49 H23        -0.2272   -5.8432   -9.3791 H         1 <0>         0.0766
     50 H24         0.9412   -4.5528   -9.7504 H         1 <0>         0.0771
     51 H25         2.8634   -4.9884  -11.1716 H         1 <0>         0.1218
     52 H26         3.7947   -6.3563  -12.9949 H         1 <0>         0.1225
     53 H27         2.8544   -8.5824  -13.4678 H         1 <0>         0.1217
     54 H28         0.9833   -9.4409  -12.1168 H         1 <0>         0.1224
     55 H29         0.0574   -8.0763  -10.2882 H         1 <0>         0.1214
@<TRIPOS>BOND
     1    1    2 1
     2    1   27 1
     3    1   28 1
     4    1   29 1
     5    2    3 1
     6    2   30 1
     7    2   31 1
     8    3    4 1
     9    3    5 1
    10    3    6 1
    11    4   32 1
    12    4   33 1
    13    4   34 1
    14    5   35 1
    15    5   36 1
    16    5   37 1
    17    6    7 2
    18    6    8 1
    19    8    9 2
    20    8   10 am
    21   10   14 1
    22   10   11 1
    23   11   12 1
    24   11   38 1
    25   11   39 1
    26   12   13 1
    27   12   40 1
    28   12   41 1
    29   13   14 1
    30   13   42 1
    31   13   43 1
    32   14   15 1
    33   14   44 1
    34   15   16 2
    35   15   17 1
    36   17   18 1
    37   18   19 1
    38   18   45 1
    39   18   46 1
    40   19   20 1
    41   19   47 1
    42   19   48 1
    43   20   21 1
    44   20   49 1
    45   20   50 1
    46   21   26 ar
    47   21   22 ar
    48   22   23 ar
    49   22   51 1
    50   23   24 ar
    51   23   52 1
    52   24   25 ar
    53   24   53 1
    54   25   26 ar
    55   25   54 1
    56   26   55 1
@<TRIPOS>MOLECULE
CHEMBL200999
   53    57     0     0     0
SMALL
USER_CHARGES

@<TRIPOS>ATOM
      1 C1         -0.0173    1.4248    0.0099 C.3       1 <0>         0.0278
      2 O1          0.0021   -0.0041    0.0020 O.3       1 <0>        -0.3194
      3 C2         -1.2003   -0.6375    0.0101 C.ar      1 <0>         0.1302
      4 C3         -2.3757    0.0999    0.0195 C.ar      1 <0>        -0.2018
      5 C4         -3.5903   -0.5528    0.0329 C.ar      1 <0>        -0.0681
      6 C5         -3.6461   -1.9393    0.0338 C.ar      1 <0>        -0.1235
      7 C6         -2.4806   -2.6762    0.0136 C.ar      1 <0>        -0.0169
      8 C7         -1.2569   -2.0204    0.0032 C.ar      1 <0>        -0.1513
      9 C8         -2.4696   -4.1815   -0.0207 C.3       1 <0>        -0.0972
     10 C9         -3.8046   -4.7547    0.4522 C.3       1 <0>         0.1069
     11 N1         -4.8801   -4.0138   -0.2410 N.am      1 <0>        -0.5880
     12 C10        -4.9983   -2.5988    0.0666 C.3       1 <0>         0.1909
     13 C11        -5.9944   -1.8504   -0.8006 C.3       1 <0>         0.1491
     14 C12        -7.3559   -1.8084   -0.0936 C.3       1 <0>        -0.1300
     15 C13        -7.8658   -3.2388    0.0961 C.3       1 <0>        -0.1232
     16 C14        -8.0163   -3.9197   -1.2657 C.3       1 <0>        -0.1224
     17 C15        -6.6570   -3.9481   -1.9737 C.3       1 <0>         0.1466
     18 C16        -5.6644   -4.6784   -1.1014 C.2       1 <0>         0.5301
     19 O2         -5.5749   -5.8853   -1.1806 O.2       1 <0>        -0.5475
     20 N2         -6.1706   -2.5551   -2.0829 N.pl3     1 <0>        -0.9806
     21 S1         -5.8479   -1.8393   -3.5409 S.o2      1 <0>         2.7127
     22 O3         -6.6193   -2.5316   -4.5129 O.2       1 <0>        -1.0391
     23 O4         -5.9584   -0.4371   -3.3382 O.2       1 <0>        -1.0383
     24 N3         -4.2587   -2.1426   -3.8942 N.2       1 <0>        -1.0851
     25 C17        -3.7003   -1.6539   -5.0797 C.ar      1 <0>         0.2365
     26 C18        -2.3657   -1.9083   -5.3893 C.ar      1 <0>        -0.1225
     27 C19        -1.8572   -1.4040   -6.5739 C.ar      1 <0>        -0.1418
     28 C20        -2.6853   -0.6686   -7.4066 C.ar      1 <0>         0.1775
     29 N4         -3.9455   -0.4458   -7.0834 N.ar      1 <0>        -0.4691
     30 C21        -4.4691   -0.9138   -5.9667 C.ar      1 <0>        -0.0200
     31 F1         -2.1963   -0.1727   -8.5643 F         1 <0>        -0.1399
     32 H1          1.0053    1.8021    0.0021 H         1 <0>         0.0970
     33 H2         -0.5445    1.7859   -0.8732 H         1 <0>         0.0571
     34 H3         -0.5275    1.7763    0.9067 H         1 <0>         0.0532
     35 H4         -2.3395    1.1793    0.0166 H         1 <0>         0.1277
     36 H5         -4.5058    0.0200    0.0431 H         1 <0>         0.1275
     37 H6         -0.3418   -2.5939   -0.0062 H         1 <0>         0.1274
     38 H7         -2.2793   -4.5142   -1.0411 H         1 <0>         0.0888
     39 H8         -1.6738   -4.5479    0.6278 H         1 <0>         0.0851
     40 H9         -3.8628   -5.8134    0.1995 H         1 <0>         0.1030
     41 H10        -3.9017   -4.6251    1.5301 H         1 <0>         0.0728
     42 H11        -5.3620   -2.5249    1.0914 H         1 <0>         0.0809
     43 H12        -5.6331   -0.8386   -0.9846 H         1 <0>         0.1181
     44 H13        -7.2469   -1.3284    0.8789 H         1 <0>         0.0771
     45 H14        -8.0649   -1.2463   -0.7014 H         1 <0>         0.0778
     46 H15        -7.1560   -3.7989    0.7048 H         1 <0>         0.0652
     47 H16        -8.8330   -3.2152    0.5983 H         1 <0>         0.0703
     48 H17        -8.3741   -4.9395   -1.1247 H         1 <0>         0.0805
     49 H18        -8.7310   -3.3641   -1.8729 H         1 <0>         0.0815
     50 H19        -6.7381   -4.4222   -2.9519 H         1 <0>         0.1338
     51 H20        -1.7430   -2.4846   -4.7210 H         1 <0>         0.1322
     52 H21        -0.8271   -1.5814   -6.8457 H         1 <0>         0.1289
     53 H22        -5.5057   -0.7149   -5.7382 H         1 <0>         0.1315
@<TRIPOS>BOND
     1    1    2 1
     2    1   32 1
     3    1   33 1
     4    1   34 1
     5    2    3 1
     6    3    8 ar
     7    3    4 ar
     8    4    5 ar
     9    4   35 1
    10    5    6 ar
    11    5   36 1
    12    6   12 1
    13    6    7 ar
    14    7    8 ar
    15    7    9 1
    16    8   37 1
    17    9   10 1
    18    9   38 1
    19    9   39 1
    20   10   11 1
    21   10   40 1
    22   10   41 1
    23   11   18 am
    24   11   12 1
    25   12   13 1
    26   12   42 1
    27   13   20 1
    28   13   14 1
    29   13   43 1
    30   14   15 1
    31   14   44 1
    32   14   45 1
    33   15   16 1
    34   15   46 1
    35   15   47 1
    36   16   17 1
    37   16   48 1
    38   16   49 1
    39   17   18 1
    40   17   20 1
    41   17   50 1
    42   18   19 2
    43   20   21 1
    44   21   22 2
    45   21   23 2
    46   21   24 1
    47   24   25 1
    48   25   30 ar
    49   25   26 ar
    50   26   27 ar
    51   26   51 1
    52   27   28 ar
    53   27   52 1
    54   28   29 ar
    55   28   31 1
    56   29   30 ar
    57   30   53 1
@<TRIPOS>MOLECULE
CHEMBL200999__1
   54    58     0     0     0
SMALL
USER_CHARGES

@<TRIPOS>ATOM
      1 C1         -0.0173    1.4248    0.0099 C.3       1 <0>         0.0256
      2 O1          0.0021   -0.0041    0.0020 O.3       1 <0>        -0.3158
      3 C2          0.6058   -0.6071   -1.0557 C.ar      1 <0>         0.1372
      4 C3          1.1736    0.1595   -2.0634 C.ar      1 <0>        -0.2023
      5 C4          1.7791   -0.4626   -3.1347 C.ar      1 <0>        -0.0748
      6 C5          1.8278   -1.8472   -3.2112 C.ar      1 <0>        -0.1395
      7 C6          1.2743   -2.6131   -2.2067 C.ar      1 <0>        -0.0230
      8 C7          0.6616   -1.9881   -1.1289 C.ar      1 <0>        -0.1545
      9 C8          1.3220   -4.1181   -2.2102 C.3       1 <0>        -0.1025
     10 C9          1.5885   -4.6592   -3.6139 C.3       1 <0>         0.1050
     11 N1          2.7147   -3.8891   -4.1837 N.am      1 <0>        -0.5909
     12 C10         2.4854   -2.4727   -4.4115 C.3       1 <0>         0.1844
     13 C11         3.7225   -1.6965   -4.8255 C.3       1 <0>         0.1445
     14 C12         3.7900   -1.6228   -6.3569 C.3       1 <0>        -0.1289
     15 C13         3.9028   -3.0406   -6.9219 C.3       1 <0>        -0.1274
     16 C14         5.1679   -3.7127   -6.3849 C.3       1 <0>        -0.1221
     17 C15         5.1023   -3.7727   -4.8546 C.3       1 <0>         0.1386
     18 C16         3.8622   -4.5308   -4.4459 C.2       1 <0>         0.5196
     19 O2          3.9048   -5.7393   -4.3530 O.2       1 <0>        -0.5267
     20 N2          4.9321   -2.3921   -4.3510 N.pl3     1 <0>        -0.9964
     21 S1          6.0224   -1.6794   -3.3284 S.o2      1 <0>         2.7817
     22 O3          7.2604   -2.3488   -3.5242 O.2       1 <0>        -0.9558
     23 O4          5.8802   -0.2757   -3.4974 O.2       1 <0>        -0.9541
     24 N3          5.5389   -2.0213   -1.7819 N.pl3     1 <0>        -1.0561
     25 C17         5.5440   -3.3427   -1.3236 C.ar      1 <0>         0.0789
     26 C18         4.4571   -3.8482   -0.6131 C.ar      1 <0>        -0.0541
     27 C19         4.5076   -5.1618   -0.1797 C.ar      1 <0>        -0.1732
     28 C20         5.6284   -5.9253   -0.4642 C.ar      1 <0>         0.3071
     29 N4          6.6412   -5.4155   -1.1398 N.ar      1 <0>        -0.4828
     30 C21         6.6291   -4.1703   -1.5750 C.ar      1 <0>         0.1106
     31 F1          5.6853   -7.2081   -0.0443 F         1 <0>        -0.1064
     32 H1          1.0053    1.8021    0.0021 H         1 <0>         0.0575
     33 H2         -0.5445    1.7859   -0.8732 H         1 <0>         0.0577
     34 H3         -0.5275    1.7763    0.9067 H         1 <0>         0.1027
     35 H4          1.1411    1.2376   -2.0090 H         1 <0>         0.1335
     36 H5          2.2188    0.1330   -3.9211 H         1 <0>         0.1318
     37 H6          0.2213   -2.5844   -0.3434 H         1 <0>         0.1326
     38 H7          2.1158   -4.4519   -1.5419 H         1 <0>         0.0846
     39 H8          0.3684   -4.5065   -1.8527 H         1 <0>         0.0932
     40 H9          1.8529   -5.7153   -3.5591 H         1 <0>         0.1070
     41 H10         0.7015   -4.5310   -4.2343 H         1 <0>         0.0797
     42 H11         1.7784   -2.3932   -5.2373 H         1 <0>         0.0923
     43 H12         3.6856   -0.6935   -4.4005 H         1 <0>         0.1228
     44 H13         2.8858   -1.1491   -6.7391 H         1 <0>         0.0862
     45 H14         4.6619   -1.0410   -6.6557 H         1 <0>         0.0835
     46 H15         3.0296   -3.6205   -6.6229 H         1 <0>         0.0679
     47 H16         3.9508   -2.9945   -8.0099 H         1 <0>         0.0796
     48 H17         5.2405   -4.7238   -6.7856 H         1 <0>         0.0892
     49 H18         6.0423   -3.1372   -6.6890 H         1 <0>         0.0881
     50 H19         5.9973   -4.2412   -4.4453 H         1 <0>         0.1369
     51 H20         5.2521   -1.3051   -1.1938 H         1 <0>         0.4286
     52 H21         3.5963   -3.2299   -0.4053 H         1 <0>         0.1497
     53 H22         3.6833   -5.5866    0.3739 H         1 <0>         0.1546
     54 H23         7.4746   -3.7895   -2.1286 H         1 <0>         0.1942
@<TRIPOS>BOND
     1    1    2 1
     2    1   32 1
     3    1   33 1
     4    1   34 1
     5    2    3 1
     6    3    8 ar
     7    3    4 ar
     8    4    5 ar
     9    4   35 1
    10    5    6 ar
    11    5   36 1
    12    6   12 1
    13    6    7 ar
    14    7    8 ar
    15    7    9 1
    16    8   37 1
    17    9   10 1
    18    9   38 1
    19    9   39 1
    20   10   11 1
    21   10   40 1
    22   10   41 1
    23   11   18 am
    24   11   12 1
    25   12   13 1
    26   12   42 1
    27   13   20 1
    28   13   14 1
    29   13   43 1
    30   14   15 1
    31   14   44 1
    32   14   45 1
    33   15   16 1
    34   15   46 1
    35   15   47 1
    36   16   17 1
    37   16   48 1
    38   16   49 1
    39   17   18 1
    40   17   20 1
    41   17   50 1
    42   18   19 2
    43   20   21 1
    44   21   22 2
    45   21   23 2
    46   21   24 1
    47   24   25 1
    48   24   51 1
    49   25   30 ar
    50   25   26 ar
    51   26   27 ar
    52   26   52 1
    53   27   28 ar
    54   27   53 1
    55   28   29 ar
    56   28   31 1
    57   29   30 ar
    58   30   54 1
@<TRIPOS>MOLECULE
CHEMBL200999__2
   53    57     0     0     0
SMALL
USER_CHARGES

@<TRIPOS>ATOM
      1 C1         -0.0173    1.4248    0.0099 C.3       1 <0>         0.0269
      2 O1          0.0021   -0.0041    0.0020 O.3       1 <0>        -0.3189
      3 C2         -1.2003   -0.6375    0.0101 C.ar      1 <0>         0.1314
      4 C3         -2.3735    0.1033    0.0196 C.ar      1 <0>        -0.2122
      5 C4         -3.5992   -0.5386    0.0292 C.ar      1 <0>        -0.0685
      6 C5         -3.6465   -1.9147    0.0283 C.ar      1 <0>        -0.1265
      7 C6         -2.4751   -2.6576    0.0170 C.ar      1 <0>        -0.0357
      8 C7         -1.2531   -2.0259    0.0031 C.ar      1 <0>        -0.1445
      9 C8         -2.6012   -4.1586    0.0137 C.3       1 <0>        -0.0912
     10 C9         -3.6474   -4.5821   -1.0121 C.3       1 <0>         0.1198
     11 N1         -4.8768   -3.7804   -0.9052 N.am      1 <0>        -0.5952
     12 C10        -4.9506   -2.6702    0.0400 C.3       1 <0>         0.1850
     13 C11        -6.0994   -1.7180   -0.2591 C.3       1 <0>         0.1548
     14 C12        -5.7595   -0.7947   -1.4255 C.3       1 <0>        -0.1639
     15 C13        -5.6541   -1.5863   -2.7283 C.3       1 <0>        -0.1183
     16 C14        -6.9626   -2.3413   -2.9858 C.3       1 <0>        -0.1248
     17 C15        -7.1710   -3.3305   -1.8211 C.3       1 <0>         0.1502
     18 C16        -5.9048   -4.1380   -1.6945 C.2       1 <0>         0.5220
     19 O2         -5.8084   -5.1621   -2.3370 O.2       1 <0>        -0.5455
     20 N2         -7.2960   -2.5103   -0.5963 N.pl3     1 <0>        -0.9839
     21 S1         -8.6722   -2.4848    0.3244 S.o2      1 <0>         2.7137
     22 O3         -9.3543   -3.7050    0.0692 O.2       1 <0>        -1.0365
     23 O4         -8.2789   -2.0909    1.6319 O.2       1 <0>        -1.0383
     24 N3         -9.6338   -1.2726   -0.2659 N.2       1 <0>        -1.0916
     25 C17       -10.8758   -1.0156    0.3234 C.ar      1 <0>         0.2333
     26 C18       -11.6951   -0.0018   -0.1692 C.ar      1 <0>        -0.1236
     27 C19       -12.9156    0.2156    0.4466 C.ar      1 <0>        -0.1422
     28 C20       -13.2800   -0.5756    1.5242 C.ar      1 <0>         0.1796
     29 N4        -12.4801   -1.5281    1.9660 N.ar      1 <0>        -0.4695
     30 C21       -11.3120   -1.7704    1.4031 C.ar      1 <0>        -0.0177
     31 F1        -14.4694   -0.3693    2.1308 F         1 <0>        -0.1393
     32 H1          1.0053    1.8021    0.0021 H         1 <0>         0.0985
     33 H2         -0.5445    1.7859   -0.8732 H         1 <0>         0.0561
     34 H3         -0.5275    1.7763    0.9067 H         1 <0>         0.0567
     35 H4         -2.3299    1.1824    0.0198 H         1 <0>         0.1308
     36 H5         -4.5134    0.0363    0.0377 H         1 <0>         0.1527
     37 H6         -0.3414   -2.6049   -0.0089 H         1 <0>         0.1318
     38 H7         -1.6398   -4.6031   -0.2437 H         1 <0>         0.0932
     39 H8         -2.9047   -4.4995    1.0036 H         1 <0>         0.0883
     40 H9         -3.2319   -4.4627   -2.0127 H         1 <0>         0.0679
     41 H10        -3.8938   -5.6322   -0.8548 H         1 <0>         0.0789
     42 H11        -5.1027   -3.0780    1.0393 H         1 <0>         0.0856
     43 H12        -6.3049   -1.1119    0.6233 H         1 <0>         0.1137
     44 H13        -6.5402   -0.0406   -1.5258 H         1 <0>         0.0818
     45 H14        -4.8080   -0.3013   -1.2273 H         1 <0>         0.1038
     46 H15        -5.4628   -0.9010   -3.5541 H         1 <0>         0.0654
     47 H16        -4.8332   -2.2995   -2.6534 H         1 <0>         0.0631
     48 H17        -7.7937   -1.6371   -3.0255 H         1 <0>         0.0934
     49 H18        -6.8950   -2.8874   -3.9267 H         1 <0>         0.0747
     50 H19        -8.0412   -3.9668   -1.9820 H         1 <0>         0.1379
     51 H20       -11.3852    0.6000   -1.0107 H         1 <0>         0.1344
     52 H21       -13.5759    0.9931    0.0916 H         1 <0>         0.1300
     53 H22       -10.6864   -2.5614    1.7895 H         1 <0>         0.1326
@<TRIPOS>BOND
     1    1    2 1
     2    1   32 1
     3    1   33 1
     4    1   34 1
     5    2    3 1
     6    3    8 ar
     7    3    4 ar
     8    4    5 ar
     9    4   35 1
    10    5    6 ar
    11    5   36 1
    12    6   12 1
    13    6    7 ar
    14    7    8 ar
    15    7    9 1
    16    8   37 1
    17    9   10 1
    18    9   38 1
    19    9   39 1
    20   10   11 1
    21   10   40 1
    22   10   41 1
    23   11   18 am
    24   11   12 1
    25   12   13 1
    26   12   42 1
    27   13   20 1
    28   13   14 1
    29   13   43 1
    30   14   15 1
    31   14   44 1
    32   14   45 1
    33   15   16 1
    34   15   46 1
    35   15   47 1
    36   16   17 1
    37   16   48 1
    38   16   49 1
    39   17   18 1
    40   17   20 1
    41   17   50 1
    42   18   19 2
    43   20   21 1
    44   21   22 2
    45   21   23 2
    46   21   24 1
    47   24   25 1
    48   25   30 ar
    49   25   26 ar
    50   26   27 ar
    51   26   51 1
    52   27   28 ar
    53   27   52 1
    54   28   29 ar
    55   28   31 1
    56   29   30 ar
    57   30   53 1
@<TRIPOS>MOLECULE
CHEMBL200999__3
   54    58     0     0     0
SMALL
USER_CHARGES

@<TRIPOS>ATOM
      1 C1         -0.0173    1.4248    0.0099 C.3       1 <0>         0.0259
      2 O1          0.0021   -0.0041    0.0020 O.3       1 <0>        -0.3155
      3 C2          0.6058   -0.6071   -1.0557 C.ar      1 <0>         0.1400
      4 C3          1.1723    0.1628   -2.0614 C.ar      1 <0>        -0.2122
      5 C4          1.7865   -0.4482   -3.1403 C.ar      1 <0>        -0.0729
      6 C5          1.8323   -1.8226   -3.2084 C.ar      1 <0>        -0.1374
      7 C6          1.2683   -2.5947   -2.2033 C.ar      1 <0>        -0.0315
      8 C7          0.6598   -1.9938   -1.1257 C.ar      1 <0>        -0.1411
      9 C8          1.3576   -4.0920   -2.3409 C.3       1 <0>        -0.0936
     10 C9          2.7754   -4.4855   -2.7423 C.3       1 <0>         0.1195
     11 N1          3.2847   -3.6536   -3.8441 N.am      1 <0>        -0.5940
     12 C10         2.4857   -2.5451   -4.3584 C.3       1 <0>         0.1892
     13 C11         3.3040   -1.5634   -5.1845 C.3       1 <0>         0.1476
     14 C12         4.1299   -0.6448   -4.2886 C.3       1 <0>        -0.1668
     15 C13         5.2178   -1.4343   -3.5618 C.3       1 <0>        -0.1228
     16 C14         6.1065   -2.1553   -4.5811 C.3       1 <0>        -0.1264
     17 C15         5.2174   -3.1430   -5.3636 C.3       1 <0>         0.1420
     18 C16         4.4876   -3.9825   -4.3468 C.2       1 <0>         0.5196
     19 O2          5.0118   -5.0064   -3.9625 O.2       1 <0>        -0.5290
     20 N2          4.2063   -2.3243   -6.0678 N.pl3     1 <0>        -1.0001
     21 S1          4.0963   -2.2674   -7.7191 S.o2      1 <0>         2.7812
     22 O3          4.6772   -3.4692   -8.2065 O.2       1 <0>        -0.9534
     23 O4          2.7613   -1.8881   -8.0244 O.2       1 <0>        -0.9534
     24 N3          5.0691   -1.0294   -8.2323 N.pl3     1 <0>        -1.0570
     25 C17         6.4530   -1.1034   -8.0440 C.ar      1 <0>         0.0785
     26 C18         7.1594   -0.0053   -7.5575 C.ar      1 <0>        -0.0560
     27 C19         8.5279   -0.1258   -7.3876 C.ar      1 <0>        -0.1733
     28 C20         9.1458   -1.3250   -7.7043 C.ar      1 <0>         0.3025
     29 N4          8.4468   -2.3463   -8.1633 N.ar      1 <0>        -0.4838
     30 C21         7.1408   -2.2733   -8.3337 C.ar      1 <0>         0.1117
     31 F1         10.4811   -1.4503   -7.5417 F         1 <0>        -0.1065
     32 H1          1.0053    1.8021    0.0021 H         1 <0>         0.0570
     33 H2         -0.5445    1.7859   -0.8732 H         1 <0>         0.0577
     34 H3         -0.5275    1.7763    0.9067 H         1 <0>         0.1024
     35 H4          1.1336    1.2405   -2.0022 H         1 <0>         0.1326
     36 H5          2.2270    0.1495   -3.9246 H         1 <0>         0.1480
     37 H6          0.2237   -2.5954   -0.3419 H         1 <0>         0.1356
     38 H7          1.1070   -4.5595   -1.3886 H         1 <0>         0.0977
     39 H8          0.6573   -4.4286   -3.1053 H         1 <0>         0.0905
     40 H9          3.4324   -4.3731   -1.8799 H         1 <0>         0.0721
     41 H10         2.7787   -5.5296   -3.0553 H         1 <0>         0.0837
     42 H11         1.7026   -2.9525   -4.9979 H         1 <0>         0.0902
     43 H12         2.6330   -0.9554   -5.7914 H         1 <0>         0.1190
     44 H13         4.5951    0.1289   -4.8993 H         1 <0>         0.0751
     45 H14         3.4751   -0.1761   -3.5540 H         1 <0>         0.1178
     46 H15         5.8267   -0.7511   -2.9696 H         1 <0>         0.0736
     47 H16         4.7538   -2.1681   -2.9027 H         1 <0>         0.0725
     48 H17         6.5452   -1.4303   -5.2667 H         1 <0>         0.0799
     49 H18         6.8960   -2.6996   -4.0631 H         1 <0>         0.0865
     50 H19         5.8015   -3.7566   -6.0494 H         1 <0>         0.1424
     51 H20         4.6792   -0.2529   -8.6635 H         1 <0>         0.4299
     52 H21         6.6517    0.9176   -7.3191 H         1 <0>         0.1534
     53 H22         9.1073    0.7051   -7.0129 H         1 <0>         0.1562
     54 H23         6.6019   -3.1316   -8.7070 H         1 <0>         0.1952
@<TRIPOS>BOND
     1    1    2 1
     2    1   32 1
     3    1   33 1
     4    1   34 1
     5    2    3 1
     6    3    8 ar
     7    3    4 ar
     8    4    5 ar
     9    4   35 1
    10    5    6 ar
    11    5   36 1
    12    6   12 1
    13    6    7 ar
    14    7    8 ar
    15    7    9 1
    16    8   37 1
    17    9   10 1
    18    9   38 1
    19    9   39 1
    20   10   11 1
    21   10   40 1
    22   10   41 1
    23   11   18 am
    24   11   12 1
    25   12   13 1
    26   12   42 1
    27   13   20 1
    28   13   14 1
    29   13   43 1
    30   14   15 1
    31   14   44 1
    32   14   45 1
    33   15   16 1
    34   15   46 1
    35   15   47 1
    36   16   17 1
    37   16   48 1
    38   16   49 1
    39   17   18 1
    40   17   20 1
    41   17   50 1
    42   18   19 2
    43   20   21 1
    44   21   22 2
    45   21   23 2
    46   21   24 1
    47   24   25 1
    48   24   51 1
    49   25   30 ar
    50   25   26 ar
    51   26   27 ar
    52   26   52 1
    53   27   28 ar
    54   27   53 1
    55   28   29 ar
    56   28   31 1
    57   29   30 ar
    58   30   54 1
@<TRIPOS>MOLECULE
CHEMBL200999__4
   53    57     0     0     0
SMALL
USER_CHARGES

@<TRIPOS>ATOM
      1 C1         -0.0173    1.4248    0.0099 C.3       1 <0>         0.0272
      2 O1          0.0021   -0.0041    0.0020 O.3       1 <0>        -0.3189
      3 C2         -1.2003   -0.6375    0.0101 C.ar      1 <0>         0.1305
      4 C3         -2.3736    0.1031    0.0195 C.ar      1 <0>        -0.2126
      5 C4         -3.5994   -0.5387    0.0270 C.ar      1 <0>        -0.0717
      6 C5         -3.6470   -1.9147    0.0258 C.ar      1 <0>        -0.1264
      7 C6         -2.4754   -2.6575    0.0179 C.ar      1 <0>        -0.0345
      8 C7         -1.2533   -2.0260    0.0031 C.ar      1 <0>        -0.1441
      9 C8         -2.6018   -4.1586    0.0216 C.3       1 <0>        -0.0913
     10 C9         -3.6310   -4.5822    1.0647 C.3       1 <0>         0.1213
     11 N1         -4.8621   -3.7806    0.9779 N.am      1 <0>        -0.5908
     12 C10        -4.9508   -2.6707    0.0333 C.3       1 <0>         0.1858
     13 C11        -6.0960   -1.7197    0.3493 C.3       1 <0>         0.1532
     14 C12        -5.7403   -0.7956    1.5102 C.3       1 <0>        -0.1646
     15 C13        -5.6167   -1.5856    2.8123 C.3       1 <0>        -0.1209
     16 C14        -6.9204   -2.3423    3.0884 C.3       1 <0>        -0.1241
     17 C15        -7.1430   -3.3327    1.9273 C.3       1 <0>         0.1521
     18 C16        -5.8772   -4.1381    1.7839 C.2       1 <0>         0.5249
     19 O2         -5.7688   -5.1600    2.4280 O.2       1 <0>        -0.5475
     20 N2         -7.2865   -2.5136    0.7038 N.pl3     1 <0>        -0.9838
     21 S1         -8.6759   -2.4901   -0.1969 S.o2      1 <0>         2.7143
     22 O3         -9.7313   -2.8727    0.6744 O.2       1 <0>        -1.0359
     23 O4         -8.6808   -1.2574   -0.9039 O.2       1 <0>        -1.0377
     24 N3         -8.5430   -3.6870   -1.3335 N.2       1 <0>        -1.0947
     25 C17        -9.5808   -3.9035   -2.2458 C.ar      1 <0>         0.2340
     26 C18        -9.4815   -4.9117   -3.2025 C.ar      1 <0>        -0.1233
     27 C19       -10.5339   -5.0883   -4.0842 C.ar      1 <0>        -0.1419
     28 C20       -11.6430   -4.2633   -3.9875 C.ar      1 <0>         0.1797
     29 N4        -11.7051   -3.3173   -3.0691 N.ar      1 <0>        -0.4694
     30 C21       -10.7261   -3.1209   -2.2071 C.ar      1 <0>        -0.0178
     31 F1        -12.6740   -4.4291   -4.8446 F         1 <0>        -0.1392
     32 H1          1.0053    1.8021    0.0021 H         1 <0>         0.0983
     33 H2         -0.5445    1.7859   -0.8732 H         1 <0>         0.0564
     34 H3         -0.5275    1.7763    0.9067 H         1 <0>         0.0555
     35 H4         -2.3300    1.1822    0.0214 H         1 <0>         0.1298
     36 H5         -4.5135    0.0364    0.0342 H         1 <0>         0.1515
     37 H6         -0.3418   -2.6051   -0.0096 H         1 <0>         0.1318
     38 H7         -2.9221   -4.4983   -0.9633 H         1 <0>         0.0903
     39 H8         -1.6364   -4.6036    0.2625 H         1 <0>         0.0923
     40 H9         -3.8797   -5.6323    0.9116 H         1 <0>         0.0796
     41 H10        -3.1990   -4.4626    2.0583 H         1 <0>         0.0660
     42 H11        -5.1173   -3.0790   -0.9635 H         1 <0>         0.0927
     43 H12        -6.3151   -1.1140   -0.5301 H         1 <0>         0.1148
     44 H13        -4.7918   -0.3020    1.2985 H         1 <0>         0.1080
     45 H14        -6.5197   -0.0416    1.6206 H         1 <0>         0.0736
     46 H15        -4.7958   -2.2977    2.7272 H         1 <0>         0.0676
     47 H16        -5.4153   -0.8992    3.6346 H         1 <0>         0.0658
     48 H17        -6.8391   -2.8876    4.0286 H         1 <0>         0.0786
     49 H18        -7.7519   -1.6393    3.1388 H         1 <0>         0.0822
     50 H19        -8.0098   -3.9704    2.1006 H         1 <0>         0.1365
     51 H20        -8.6045   -5.5399   -3.2551 H         1 <0>         0.1339
     52 H21       -10.4909   -5.8597   -4.8388 H         1 <0>         0.1300
     53 H22       -10.8148   -2.3398   -1.4666 H         1 <0>         0.1328
@<TRIPOS>BOND
     1    1    2 1
     2    1   32 1
     3    1   33 1
     4    1   34 1
     5    2    3 1
     6    3    8 ar
     7    3    4 ar
     8    4    5 ar
     9    4   35 1
    10    5    6 ar
    11    5   36 1
    12    6   12 1
    13    6    7 ar
    14    7    8 ar
    15    7    9 1
    16    8   37 1
    17    9   10 1
    18    9   38 1
    19    9   39 1
    20   10   11 1
    21   10   40 1
    22   10   41 1
    23   11   18 am
    24   11   12 1
    25   12   13 1
    26   12   42 1
    27   13   20 1
    28   13   14 1
    29   13   43 1
    30   14   15 1
    31   14   44 1
    32   14   45 1
    33   15   16 1
    34   15   46 1
    35   15   47 1
    36   16   17 1
    37   16   48 1
    38   16   49 1
    39   17   18 1
    40   17   20 1
    41   17   50 1
    42   18   19 2
    43   20   21 1
    44   21   22 2
    45   21   23 2
    46   21   24 1
    47   24   25 1
    48   25   30 ar
    49   25   26 ar
    50   26   27 ar
    51   26   51 1
    52   27   28 ar
    53   27   52 1
    54   28   29 ar
    55   28   31 1
    56   29   30 ar
    57   30   53 1
@<TRIPOS>MOLECULE
CHEMBL200999__5
   54    58     0     0     0
SMALL
USER_CHARGES

@<TRIPOS>ATOM
      1 C1         -0.0173    1.4248    0.0099 C.3       1 <0>         0.0256
      2 O1          0.0021   -0.0041    0.0020 O.3       1 <0>        -0.3155
      3 C2          0.6058   -0.6071   -1.0557 C.ar      1 <0>         0.1410
      4 C3          1.1724    0.1626   -2.0615 C.ar      1 <0>        -0.2118
      5 C4          1.7885   -0.4482   -3.1394 C.ar      1 <0>        -0.0722
      6 C5          1.8348   -1.8225   -3.2075 C.ar      1 <0>        -0.1401
      7 C6          1.2677   -2.5945   -2.2040 C.ar      1 <0>        -0.0322
      8 C7          0.6599   -1.9938   -1.1259 C.ar      1 <0>        -0.1422
      9 C8          1.3511   -4.0919   -2.3453 C.3       1 <0>        -0.0916
     10 C9          0.9686   -4.4932   -3.7663 C.3       1 <0>         0.1200
     11 N1          1.6465   -3.6607   -4.7728 N.am      1 <0>        -0.5922
     12 C10         2.4916   -2.5456   -4.3552 C.3       1 <0>         0.1890
     13 C11         2.7754   -1.5673   -5.4857 C.3       1 <0>         0.1455
     14 C12         1.5778   -0.6564   -5.7397 C.3       1 <0>        -0.1650
     15 C13         0.4007   -1.4539   -6.2994 C.3       1 <0>        -0.1249
     16 C14         0.8249   -2.1785   -7.5814 C.3       1 <0>        -0.1233
     17 C15         1.9571   -3.1590   -7.2135 C.3       1 <0>         0.1429
     18 C16         1.4613   -3.9954   -6.0619 C.2       1 <0>         0.5145
     19 O2          0.8652   -5.0220   -6.3105 O.2       1 <0>        -0.5285
     20 N2          3.0757   -2.3323   -6.7096 N.pl3     1 <0>        -0.9997
     21 S1          4.5497   -2.2707   -7.4618 S.o2      1 <0>         2.7817
     22 O3          4.3285   -2.6299   -8.8188 O.2       1 <0>        -0.9534
     23 O4          5.1452   -1.0359   -7.0880 O.2       1 <0>        -0.9536
     24 N3          5.4863   -3.4667   -6.8024 N.pl3     1 <0>        -1.0584
     25 C17         5.1345   -4.8086   -6.9803 C.ar      1 <0>         0.0748
     26 C18         5.1645   -5.6951   -5.9057 C.ar      1 <0>        -0.0548
     27 C19         4.8079   -7.0137   -6.1302 C.ar      1 <0>        -0.1715
     28 C20         4.4357   -7.4059   -7.4060 C.ar      1 <0>         0.3066
     29 N4          4.4180   -6.5403   -8.4023 N.ar      1 <0>        -0.4835
     30 C21         4.7452   -5.2743   -8.2282 C.ar      1 <0>         0.1112
     31 F1          4.0868   -8.6911   -7.6331 F         1 <0>        -0.1062
     32 H1          1.0053    1.8021    0.0021 H         1 <0>         0.0580
     33 H2         -0.5445    1.7859   -0.8732 H         1 <0>         0.0575
     34 H3         -0.5275    1.7763    0.9067 H         1 <0>         0.1026
     35 H4          1.1322    1.2403   -2.0032 H         1 <0>         0.1331
     36 H5          2.2301    0.1497   -3.9230 H         1 <0>         0.1501
     37 H6          0.2245   -2.5956   -0.3419 H         1 <0>         0.1352
     38 H7          2.3694   -4.4201   -2.1371 H         1 <0>         0.0884
     39 H8          0.6669   -4.5619   -1.6388 H         1 <0>         0.0969
     40 H9          1.2419   -5.5362   -3.9262 H         1 <0>         0.0818
     41 H10        -0.1096   -4.3880   -3.8867 H         1 <0>         0.0715
     42 H11         3.4445   -2.9461   -4.0092 H         1 <0>         0.0844
     43 H12         3.6370   -0.9532   -5.2237 H         1 <0>         0.1207
     44 H13         1.2795   -0.1861   -4.8027 H         1 <0>         0.1172
     45 H14         1.8600    0.1165   -6.4546 H         1 <0>         0.0795
     46 H15         0.0752   -2.1860   -5.5604 H         1 <0>         0.0705
     47 H16        -0.4228   -0.7756   -6.5225 H         1 <0>         0.0750
     48 H17        -0.0216   -2.7290   -7.9920 H         1 <0>         0.0875
     49 H18         1.1858   -1.4551   -8.3125 H         1 <0>         0.0882
     50 H19         2.2501   -3.7754   -8.0633 H         1 <0>         0.1391
     51 H20         6.2789   -3.2365   -6.2928 H         1 <0>         0.4294
     52 H21         5.4592   -5.3617   -4.9216 H         1 <0>         0.1512
     53 H22         4.8201   -7.7284   -5.3206 H         1 <0>         0.1553
     54 H23         4.7143   -4.5942   -9.0665 H         1 <0>         0.1950
@<TRIPOS>BOND
     1    1    2 1
     2    1   32 1
     3    1   33 1
     4    1   34 1
     5    2    3 1
     6    3    8 ar
     7    3    4 ar
     8    4    5 ar
     9    4   35 1
    10    5    6 ar
    11    5   36 1
    12    6   12 1
    13    6    7 ar
    14    7    8 ar
    15    7    9 1
    16    8   37 1
    17    9   10 1
    18    9   38 1
    19    9   39 1
    20   10   11 1
    21   10   40 1
    22   10   41 1
    23   11   18 am
    24   11   12 1
    25   12   13 1
    26   12   42 1
    27   13   20 1
    28   13   14 1
    29   13   43 1
    30   14   15 1
    31   14   44 1
    32   14   45 1
    33   15   16 1
    34   15   46 1
    35   15   47 1
    36   16   17 1
    37   16   48 1
    38   16   49 1
    39   17   18 1
    40   17   20 1
    41   17   50 1
    42   18   19 2
    43   20   21 1
    44   21   22 2
    45   21   23 2
    46   21   24 1
    47   24   25 1
    48   24   51 1
    49   25   30 ar
    50   25   26 ar
    51   26   27 ar
    52   26   52 1
    53   27   28 ar
    54   27   53 1
    55   28   29 ar
    56   28   31 1
    57   29   30 ar
    58   30   54 1
@<TRIPOS>MOLECULE
CHEMBL200999__6
   53    57     0     0     0
SMALL
USER_CHARGES

@<TRIPOS>ATOM
      1 C1         -0.0173    1.4248    0.0099 C.3       1 <0>         0.0269
      2 O1          0.0021   -0.0041    0.0020 O.3       1 <0>        -0.3195
      3 C2         -1.2003   -0.6375    0.0101 C.ar      1 <0>         0.1297
      4 C3         -2.3757    0.0999    0.0195 C.ar      1 <0>        -0.2002
      5 C4         -3.5904   -0.5527    0.0225 C.ar      1 <0>        -0.0566
      6 C5         -3.6461   -1.9393    0.0200 C.ar      1 <0>        -0.1309
      7 C6         -2.4805   -2.6764    0.0198 C.ar      1 <0>        -0.0292
      8 C7         -1.2569   -2.0204    0.0032 C.ar      1 <0>        -0.1562
      9 C8         -2.4690   -4.1819    0.0470 C.3       1 <0>        -0.0987
     10 C9         -3.8120   -4.7525   -0.4065 C.3       1 <0>         0.1051
     11 N1         -4.8754   -4.0147    0.3082 N.am      1 <0>        -0.5940
     12 C10        -4.9990   -2.5983    0.0093 C.3       1 <0>         0.1882
     13 C11        -5.9770   -1.8534    0.9000 C.3       1 <0>         0.1499
     14 C12        -7.3520   -1.8055    0.2203 C.3       1 <0>        -0.1309
     15 C13        -7.8678   -3.2340    0.0328 C.3       1 <0>        -0.1206
     16 C14        -7.9921   -3.9225    1.3933 C.3       1 <0>        -0.1228
     17 C15        -6.6193   -3.9566    2.0744 C.3       1 <0>         0.1468
     18 C16        -5.6448   -4.6834    1.1789 C.2       1 <0>         0.5270
     19 O2         -5.5570   -5.8910    1.2481 O.2       1 <0>        -0.5449
     20 N2         -6.1288   -2.5649    2.1817 N.pl3     1 <0>        -0.9809
     21 S1         -5.7765   -1.8575    3.6370 S.o2      1 <0>         2.7144
     22 O3         -5.4911   -2.9139    4.5435 O.2       1 <0>        -1.0391
     23 O4         -4.8506   -0.8138    3.3676 O.2       1 <0>        -1.0332
     24 N3         -7.1635   -1.1319    4.1773 N.2       1 <0>        -1.0941
     25 C17        -7.1655   -0.4481    5.3973 C.ar      1 <0>         0.2338
     26 C18        -8.3287    0.1610    5.8638 C.ar      1 <0>        -0.1241
     27 C19        -8.2822    0.8264    7.0768 C.ar      1 <0>        -0.1422
     28 C20        -7.0900    0.8647    7.7819 C.ar      1 <0>         0.1790
     29 N4         -6.0058    0.2769    7.3114 N.ar      1 <0>        -0.4695
     30 C21        -6.0106   -0.3718    6.1628 C.ar      1 <0>        -0.0176
     31 F1         -7.0364    1.5124    8.9663 F         1 <0>        -0.1394
     32 H1          1.0053    1.8021    0.0021 H         1 <0>         0.0979
     33 H2         -0.5445    1.7859   -0.8732 H         1 <0>         0.0546
     34 H3         -0.5275    1.7763    0.9067 H         1 <0>         0.0579
     35 H4         -2.3394    1.1792    0.0249 H         1 <0>         0.1302
     36 H5         -4.5060    0.0200    0.0270 H         1 <0>         0.1305
     37 H6         -0.3418   -2.5939   -0.0103 H         1 <0>         0.1286
     38 H7         -1.6841   -4.5453   -0.6163 H         1 <0>         0.0888
     39 H8         -2.2620   -4.5194    1.0625 H         1 <0>         0.0835
     40 H9         -3.9269   -4.6174   -1.4820 H         1 <0>         0.0756
     41 H10        -3.8663   -5.8124   -0.1582 H         1 <0>         0.1043
     42 H11        -5.3824   -2.5191   -1.0080 H         1 <0>         0.0847
     43 H12        -5.6107   -0.8431    1.0824 H         1 <0>         0.1177
     44 H13        -8.0480   -1.2457    0.8450 H         1 <0>         0.0874
     45 H14        -7.2614   -1.3202   -0.7515 H         1 <0>         0.0732
     46 H15        -8.8448   -3.2061   -0.4498 H         1 <0>         0.0699
     47 H16        -7.1712   -3.7916   -0.5933 H         1 <0>         0.0606
     48 H17        -8.6939   -3.3696    2.0177 H         1 <0>         0.0910
     49 H18        -8.3540   -4.9411    1.2536 H         1 <0>         0.0768
     50 H19        -6.6819   -4.4359    3.0513 H         1 <0>         0.1341
     51 H20        -9.2442    0.1154    5.2927 H         1 <0>         0.1344
     52 H21        -9.1646    1.3102    7.4687 H         1 <0>         0.1300
     53 H22        -5.1049   -0.8443    5.8122 H         1 <0>         0.1320
@<TRIPOS>BOND
     1    1    2 1
     2    1   32 1
     3    1   33 1
     4    1   34 1
     5    2    3 1
     6    3    8 ar
     7    3    4 ar
     8    4    5 ar
     9    4   35 1
    10    5    6 ar
    11    5   36 1
    12    6   12 1
    13    6    7 ar
    14    7    8 ar
    15    7    9 1
    16    8   37 1
    17    9   10 1
    18    9   38 1
    19    9   39 1
    20   10   11 1
    21   10   40 1
    22   10   41 1
    23   11   18 am
    24   11   12 1
    25   12   13 1
    26   12   42 1
    27   13   20 1
    28   13   14 1
    29   13   43 1
    30   14   15 1
    31   14   44 1
    32   14   45 1
    33   15   16 1
    34   15   46 1
    35   15   47 1
    36   16   17 1
    37   16   48 1
    38   16   49 1
    39   17   18 1
    40   17   20 1
    41   17   50 1
    42   18   19 2
    43   20   21 1
    44   21   22 2
    45   21   23 2
    46   21   24 1
    47   24   25 1
    48   25   30 ar
    49   25   26 ar
    50   26   27 ar
    51   26   51 1
    52   27   28 ar
    53   27   52 1
    54   28   29 ar
    55   28   31 1
    56   29   30 ar
    57   30   53 1
@<TRIPOS>MOLECULE
CHEMBL200999__7
   54    58     0     0     0
SMALL
USER_CHARGES

@<TRIPOS>ATOM
      1 C1         -0.0173    1.4248    0.0099 C.3       1 <0>         0.0260
      2 O1          0.0021   -0.0041    0.0020 O.3       1 <0>        -0.3164
      3 C2          0.6058   -0.6071   -1.0557 C.ar      1 <0>         0.1371
      4 C3          1.1735    0.1595   -2.0634 C.ar      1 <0>        -0.2016
      5 C4          1.7882   -0.4624   -3.1296 C.ar      1 <0>        -0.0636
      6 C5          1.8397   -1.8472   -3.2043 C.ar      1 <0>        -0.1421
      7 C6          1.2689   -2.6133   -2.2098 C.ar      1 <0>        -0.0241
      8 C7          0.6616   -1.9882   -1.1289 C.ar      1 <0>        -0.1538
      9 C8          1.2631   -4.1187   -2.2435 C.3       1 <0>        -0.1010
     10 C9          2.3358   -4.6538   -3.1910 C.3       1 <0>         0.1053
     11 N1          2.2368   -3.8920   -4.4543 N.am      1 <0>        -0.5934
     12 C10         2.5354   -2.4720   -4.3835 C.3       1 <0>         0.1900
     13 C11         2.2411   -1.7059   -5.6607 C.3       1 <0>         0.1435
     14 C12         3.5161   -1.6211   -6.5104 C.3       1 <0>        -0.1309
     15 C13         3.9586   -3.0356   -6.8919 C.3       1 <0>        -0.1257
     16 C14         2.8530   -3.7254   -7.6934 C.3       1 <0>        -0.1243
     17 C15         1.5778   -3.7964   -6.8460 C.3       1 <0>         0.1387
     18 C16         1.8776   -4.5443   -5.5691 C.2       1 <0>         0.5255
     19 O2          1.7926   -5.7540   -5.5518 O.2       1 <0>        -0.5279
     20 N2          1.2180   -2.4178   -6.4472 N.pl3     1 <0>        -0.9965
     21 S1         -0.2294   -1.7245   -6.8555 S.o2      1 <0>         2.7789
     22 O3         -1.1407   -2.7909   -7.0828 O.2       1 <0>        -0.9552
     23 O4         -0.4751   -0.7035   -5.8983 O.2       1 <0>        -0.9484
     24 N3         -0.0155   -0.9663   -8.3121 N.pl3     1 <0>        -1.0582
     25 C17         0.2703   -1.7178   -9.4565 C.ar      1 <0>         0.0787
     26 C18         1.2760   -1.3153  -10.3330 C.ar      1 <0>        -0.0563
     27 C19         1.5228   -2.0913  -11.4524 C.ar      1 <0>        -0.1729
     28 C20         0.7677   -3.2338  -11.6632 C.ar      1 <0>         0.3020
     29 N4         -0.1780   -3.5870  -10.8128 N.ar      1 <0>        -0.4837
     30 C21        -0.4398   -2.8778   -9.7318 C.ar      1 <0>         0.1108
     31 F1          1.0022   -3.9961  -12.7537 F         1 <0>        -0.1065
     32 H1          1.0053    1.8021    0.0021 H         1 <0>         0.0567
     33 H2         -0.5445    1.7859   -0.8732 H         1 <0>         0.0574
     34 H3         -0.5275    1.7763    0.9067 H         1 <0>         0.1018
     35 H4          1.1339    1.2376   -2.0131 H         1 <0>         0.1323
     36 H5          2.2329    0.1331   -3.9132 H         1 <0>         0.1281
     37 H6          0.2250   -2.5844   -0.3414 H         1 <0>         0.1325
     38 H7          1.4509   -4.4993   -1.2396 H         1 <0>         0.0938
     39 H8          0.2854   -4.4648   -2.5787 H         1 <0>         0.0855
     40 H9          3.3226   -4.5121   -2.7501 H         1 <0>         0.0804
     41 H10         2.1644   -5.7129   -3.3833 H         1 <0>         0.1081
     42 H11         3.6067   -2.3796   -4.2053 H         1 <0>         0.0920
     43 H12         1.8843   -0.7058   -5.4146 H         1 <0>         0.1227
     44 H13         3.3142   -1.0462   -7.4142 H         1 <0>         0.0793
     45 H14         4.3049   -1.1348   -5.9364 H         1 <0>         0.0866
     46 H15         4.8643   -2.9815   -7.4959 H         1 <0>         0.0784
     47 H16         4.1613   -3.6083   -5.9869 H         1 <0>         0.0700
     48 H17         2.6544   -3.1573   -8.6022 H         1 <0>         0.0793
     49 H18         3.1708   -4.7341   -7.9573 H         1 <0>         0.0890
     50 H19         0.7704   -4.2774   -7.3982 H         1 <0>         0.1378
     51 H20        -0.0884   -0.0008   -8.3716 H         1 <0>         0.4294
     52 H21         1.8488   -0.4195  -10.1437 H         1 <0>         0.1536
     53 H22         2.2944   -1.8093  -12.1534 H         1 <0>         0.1565
     54 H23        -1.2182   -3.2008   -9.0564 H         1 <0>         0.1947
@<TRIPOS>BOND
     1    1    2 1
     2    1   32 1
     3    1   33 1
     4    1   34 1
     5    2    3 1
     6    3    8 ar
     7    3    4 ar
     8    4    5 ar
     9    4   35 1
    10    5    6 ar
    11    5   36 1
    12    6   12 1
    13    6    7 ar
    14    7    8 ar
    15    7    9 1
    16    8   37 1
    17    9   10 1
    18    9   38 1
    19    9   39 1
    20   10   11 1
    21   10   40 1
    22   10   41 1
    23   11   18 am
    24   11   12 1
    25   12   13 1
    26   12   42 1
    27   13   20 1
    28   13   14 1
    29   13   43 1
    30   14   15 1
    31   14   44 1
    32   14   45 1
    33   15   16 1
    34   15   46 1
    35   15   47 1
    36   16   17 1
    37   16   48 1
    38   16   49 1
    39   17   18 1
    40   17   20 1
    41   17   50 1
    42   18   19 2
    43   20   21 1
    44   21   22 2
    45   21   23 2
    46   21   24 1
    47   24   25 1
    48   24   51 1
    49   25   30 ar
    50   25   26 ar
    51   26   27 ar
    52   26   52 1
    53   27   28 ar
    54   27   53 1
    55   28   29 ar
    56   28   31 1
    57   29   30 ar
    58   30   54 1
@<TRIPOS>MOLECULE
CHEMBL202171
   66    71     0     0     0
SMALL
USER_CHARGES

@<TRIPOS>ATOM
      1 C1         -0.2910    0.4433    0.6851 C.3       1 <0>         0.0281
      2 O1         -0.0831   -0.9615    0.5259 O.3       1 <0>        -0.3196
      3 C2          0.5171   -1.3702   -0.6228 C.ar      1 <0>         0.1296
      4 C3          0.9041   -0.4387   -1.5757 C.ar      1 <0>        -0.2017
      5 C4          1.5077   -0.8645   -2.7401 C.ar      1 <0>        -0.0674
      6 C5          1.7337   -2.2151   -2.9645 C.ar      1 <0>        -0.1218
      7 C6          1.3606   -3.1436   -2.0155 C.ar      1 <0>        -0.0166
      8 C7          0.7499   -2.7165   -0.8440 C.ar      1 <0>        -0.1512
      9 C8          1.6068   -4.6199   -2.1799 C.3       1 <0>        -0.0970
     10 C9          1.8406   -4.9812   -3.6459 C.3       1 <0>         0.1069
     11 N1          2.8107   -4.0107   -4.1964 N.am      1 <0>        -0.5878
     12 C10         2.3800   -2.6247   -4.2602 C.3       1 <0>         0.1912
     13 C11         3.4703   -1.6478   -4.6619 C.3       1 <0>         0.1499
     14 C12         3.4166   -1.4185   -6.1783 C.3       1 <0>        -0.1302
     15 C13         3.6751   -2.7458   -6.8949 C.3       1 <0>        -0.1228
     16 C14         5.0536   -3.2839   -6.5064 C.3       1 <0>        -0.1224
     17 C15         5.1072   -3.4994   -4.9897 C.3       1 <0>         0.1472
     18 C16         4.0111   -4.4584   -4.5912 C.2       1 <0>         0.5306
     19 O2          4.2200   -5.6525   -4.6285 O.2       1 <0>        -0.5487
     20 N2          4.7924   -2.2108   -4.3347 N.pl3     1 <0>        -0.9802
     21 S1          5.8496   -1.4552   -3.3082 S.o2      1 <0>         2.7088
     22 O3          7.1481   -1.9239   -3.6453 O.2       1 <0>        -1.0458
     23 O4          5.5110   -0.0752   -3.3201 O.2       1 <0>        -1.0451
     24 N3          5.5287   -2.0081   -1.7806 N.2       1 <0>        -1.0935
     25 C17         6.2762   -1.5373   -0.6940 C.ar      1 <0>         0.2035
     26 C18         6.0170   -2.0014    0.5948 C.ar      1 <0>        -0.1054
     27 C19         6.7798   -1.5091    1.6379 C.ar      1 <0>        -0.1823
     28 C20         7.7734   -0.5738    1.3687 C.ar      1 <0>         0.2979
     29 N4          7.9916   -0.1553    0.1325 N.ar      1 <0>        -0.4955
     30 C21         7.2869   -0.6083   -0.8875 C.ar      1 <0>        -0.0121
     31 N5          8.5475   -0.0716    2.4125 N.pl3     1 <0>        -0.6288
     32 C22         9.7433    0.7430    2.1447 C.3       1 <0>         0.1008
     33 C23         9.6548    2.0224    2.9845 C.3       1 <0>         0.0468
     34 O5          9.4171    1.6734    4.3503 O.3       1 <0>        -0.3870
     35 C24         8.1800    0.9926    4.5737 C.3       1 <0>         0.0467
     36 C25         8.1899   -0.3349    3.8154 C.3       1 <0>         0.1014
     37 H1          0.6694    0.9581    0.6573 H         1 <0>         0.0566
     38 H2         -0.9237    0.8108   -0.1228 H         1 <0>         0.0530
     39 H3         -0.7771    0.6325    1.6421 H         1 <0>         0.0965
     40 H4          0.7332    0.6141   -1.4065 H         1 <0>         0.1270
     41 H5          1.8068   -0.1408   -3.4838 H         1 <0>         0.1272
     42 H6          0.4504   -3.4410   -0.1011 H         1 <0>         0.1269
     43 H7          2.4839   -4.9028   -1.5980 H         1 <0>         0.0888
     44 H8          0.7414   -5.1698   -1.8101 H         1 <0>         0.0846
     45 H9          2.2458   -5.9905   -3.7180 H         1 <0>         0.1027
     46 H10         0.9019   -4.9185   -4.1965 H         1 <0>         0.0723
     47 H11         1.6109   -2.5652   -5.0304 H         1 <0>         0.0798
     48 H12         3.3316   -0.7052   -4.1323 H         1 <0>         0.1174
     49 H13         2.4324   -1.0405   -6.4552 H         1 <0>         0.0762
     50 H14         4.1799   -0.6950   -6.4648 H         1 <0>         0.0772
     51 H15         2.9103   -3.4675   -6.6080 H         1 <0>         0.0649
     52 H16         3.6379   -2.5890   -7.9729 H         1 <0>         0.0696
     53 H17         5.2303   -4.2318   -7.0148 H         1 <0>         0.0796
     54 H18         5.8197   -2.5659   -6.7989 H         1 <0>         0.0808
     55 H19         6.0835   -3.8761   -4.6849 H         1 <0>         0.1330
     56 H20         5.2385   -2.7280    0.7744 H         1 <0>         0.1213
     57 H21         6.6059   -1.8464    2.6491 H         1 <0>         0.1146
     58 H22         7.4969   -0.2477   -1.8836 H         1 <0>         0.1220
     59 H23        10.6375    0.1841    2.4205 H         1 <0>         0.0541
     60 H24         9.7826    1.0006    1.0863 H         1 <0>         0.0998
     61 H25        10.5917    2.5741    2.9074 H         1 <0>         0.0969
     62 H26         8.8356    2.6418    2.6191 H         1 <0>         0.0523
     63 H27         8.0560    0.8033    5.6400 H         1 <0>         0.0981
     64 H28         7.3555    1.6082    4.2141 H         1 <0>         0.0518
     65 H29         7.2009   -0.7908    3.8628 H         1 <0>         0.0878
     66 H30         8.9250   -1.0042    4.2622 H         1 <0>         0.0605
@<TRIPOS>BOND
     1    1    2 1
     2    1   37 1
     3    1   38 1
     4    1   39 1
     5    2    3 1
     6    3    8 ar
     7    3    4 ar
     8    4    5 ar
     9    4   40 1
    10    5    6 ar
    11    5   41 1
    12    6   12 1
    13    6    7 ar
    14    7    8 ar
    15    7    9 1
    16    8   42 1
    17    9   10 1
    18    9   43 1
    19    9   44 1
    20   10   11 1
    21   10   45 1
    22   10   46 1
    23   11   18 am
    24   11   12 1
    25   12   13 1
    26   12   47 1
    27   13   20 1
    28   13   14 1
    29   13   48 1
    30   14   15 1
    31   14   49 1
    32   14   50 1
    33   15   16 1
    34   15   51 1
    35   15   52 1
    36   16   17 1
    37   16   53 1
    38   16   54 1
    39   17   18 1
    40   17   20 1
    41   17   55 1
    42   18   19 2
    43   20   21 1
    44   21   22 2
    45   21   23 2
    46   21   24 1
    47   24   25 1
    48   25   30 ar
    49   25   26 ar
    50   26   27 ar
    51   26   56 1
    52   27   28 ar
    53   27   57 1
    54   28   29 ar
    55   28   31 1
    56   29   30 ar
    57   30   58 1
    58   31   36 1
    59   31   32 1
    60   32   33 1
    61   32   59 1
    62   32   60 1
    63   33   34 1
    64   33   61 1
    65   33   62 1
    66   34   35 1
    67   35   36 1
    68   35   63 1
    69   35   64 1
    70   36   65 1
    71   36   66 1
@<TRIPOS>MOLECULE
CHEMBL202171__1
   67    72     0     0     0
SMALL
USER_CHARGES

@<TRIPOS>ATOM
      1 C1         -0.6367    1.0802    0.8431 C.3       1 <0>         0.0259
      2 O1         -0.6590   -0.3465    0.7641 O.3       1 <0>        -0.3162
      3 C2         -1.8632   -0.9330    0.5344 C.ar      1 <0>         0.1366
      4 C3         -3.0002   -0.1523    0.3821 C.ar      1 <0>        -0.2028
      5 C4         -4.2179   -0.7579    0.1545 C.ar      1 <0>        -0.0747
      6 C5         -4.3145   -2.1397    0.0736 C.ar      1 <0>        -0.1380
      7 C6         -3.1854   -2.9191    0.2136 C.ar      1 <0>        -0.0211
      8 C7         -1.9591   -2.3109    0.4458 C.ar      1 <0>        -0.1546
      9 C8         -3.2136   -4.4205    0.1031 C.3       1 <0>        -0.1020
     10 C9         -4.6266   -4.9634    0.3113 C.3       1 <0>         0.1065
     11 N1         -5.5442   -4.1504   -0.5151 N.am      1 <0>        -0.5901
     12 C10        -5.6712   -2.7477   -0.1587 C.3       1 <0>         0.1853
     13 C11        -6.4808   -1.9223   -1.1424 C.3       1 <0>         0.1450
     14 C12        -7.9416   -1.8609   -0.6762 C.3       1 <0>        -0.1291
     15 C13        -8.5190   -3.2780   -0.6509 C.3       1 <0>        -0.1269
     16 C14        -8.4535   -3.8887   -2.0521 C.3       1 <0>        -0.1226
     17 C15        -6.9942   -3.9364   -2.5191 C.3       1 <0>         0.1413
     18 C16        -6.1885   -4.7439   -1.5299 C.2       1 <0>         0.5229
     19 O2         -6.1229   -5.9484   -1.6556 O.2       1 <0>        -0.5286
     20 N2         -6.4549   -2.5596   -2.4710 N.pl3     1 <0>        -0.9963
     21 S1         -5.8652   -1.7899   -3.8135 S.o2      1 <0>         2.7826
     22 O3         -6.4784   -2.4064   -4.9373 O.2       1 <0>        -0.9601
     23 O4         -5.9670   -0.3954   -3.5596 O.2       1 <0>        -0.9621
     24 N3         -4.2487   -2.1373   -3.9065 N.pl3     1 <0>        -1.0526
     25 C17        -3.8271   -3.4543   -4.1279 C.ar      1 <0>         0.0256
     26 C18        -2.7886   -3.9989   -3.3738 C.ar      1 <0>        -0.0338
     27 C19        -2.4051   -5.3032   -3.6264 C.ar      1 <0>        -0.2202
     28 C20        -3.0635   -6.0237   -4.6173 C.ar      1 <0>         0.4071
     29 N4         -4.0451   -5.4744   -5.3141 N.ar      1 <0>        -0.5155
     30 C21        -4.4411   -4.2343   -5.0955 C.ar      1 <0>         0.1279
     31 N5         -2.6848   -7.3385   -4.8796 N.pl3     1 <0>        -0.6103
     32 C22        -3.4941   -8.1993   -5.7567 C.3       1 <0>         0.0900
     33 C23        -2.5690   -8.8268   -6.8057 C.3       1 <0>         0.0461
     34 O5         -1.4651   -9.4515   -6.1462 O.3       1 <0>        -0.3792
     35 C24        -0.6371   -8.5491   -5.4086 C.3       1 <0>         0.0468
     36 C25        -1.4603   -7.9055   -4.2926 C.3       1 <0>         0.0893
     37 H1          0.3828    1.4179    1.0292 H         1 <0>         0.1022
     38 H2         -0.9933    1.5017   -0.0967 H         1 <0>         0.0574
     39 H3         -1.2827    1.4091    1.6571 H         1 <0>         0.0574
     40 H4         -2.9318    0.9239    0.4418 H         1 <0>         0.1330
     41 H5         -5.1041   -0.1515    0.0387 H         1 <0>         0.1314
     42 H6         -1.0735   -2.9181    0.5623 H         1 <0>         0.1315
     43 H7         -2.8608   -4.7127   -0.8860 H         1 <0>         0.0864
     44 H8         -2.5524   -4.8468    0.8575 H         1 <0>         0.0908
     45 H9         -4.6720   -6.0062   -0.0025 H         1 <0>         0.1054
     46 H10        -4.9035   -4.8802    1.3623 H         1 <0>         0.0779
     47 H11        -6.2033   -2.7074    0.7918 H         1 <0>         0.0905
     48 H12        -6.0631   -0.9177   -1.2092 H         1 <0>         0.1217
     49 H13        -7.9870   -1.4309    0.3244 H         1 <0>         0.0852
     50 H14        -8.5185   -1.2445   -1.3655 H         1 <0>         0.0829
     51 H15        -7.9414   -3.8925    0.0396 H         1 <0>         0.0675
     52 H16        -9.5569   -3.2405   -0.3201 H         1 <0>         0.0785
     53 H17        -8.8606   -4.8995   -2.0275 H         1 <0>         0.0876
     54 H18        -9.0363   -3.2786   -2.7422 H         1 <0>         0.0870
     55 H19        -6.9202   -4.3612   -3.5201 H         1 <0>         0.1359
     56 H20        -2.2950   -3.4156   -2.6106 H         1 <0>         0.1356
     57 H21        -1.6041   -5.7567   -3.0614 H         1 <0>         0.1355
     58 H22        -5.2495   -3.8211   -5.6805 H         1 <0>         0.1823
     59 H23        -3.9659   -8.9848   -5.1664 H         1 <0>         0.0712
     60 H24        -4.2594   -7.6021   -6.2525 H         1 <0>         0.1067
     61 H25        -3.1206   -9.5727   -7.3780 H         1 <0>         0.1065
     62 H26        -2.2006   -8.0511   -7.4769 H         1 <0>         0.0556
     63 H27         0.2011   -9.0951   -4.9759 H         1 <0>         0.1074
     64 H28        -0.2617   -7.7723   -6.0748 H         1 <0>         0.0551
     65 H29        -0.8794   -7.1139   -3.8193 H         1 <0>         0.0920
     66 H30        -1.7238   -8.6610   -3.5524 H         1 <0>         0.0771
     67 H31        -3.5939   -1.4285   -3.8078 H         1 <0>         0.4230
@<TRIPOS>BOND
     1    1    2 1
     2    1   37 1
     3    1   38 1
     4    1   39 1
     5    2    3 1
     6    3    8 ar
     7    3    4 ar
     8    4    5 ar
     9    4   40 1
    10    5    6 ar
    11    5   41 1
    12    6   12 1
    13    6    7 ar
    14    7    8 ar
    15    7    9 1
    16    8   42 1
    17    9   10 1
    18    9   43 1
    19    9   44 1
    20   10   11 1
    21   10   45 1
    22   10   46 1
    23   11   18 am
    24   11   12 1
    25   12   13 1
    26   12   47 1
    27   13   20 1
    28   13   14 1
    29   13   48 1
    30   14   15 1
    31   14   49 1
    32   14   50 1
    33   15   16 1
    34   15   51 1
    35   15   52 1
    36   16   17 1
    37   16   53 1
    38   16   54 1
    39   17   18 1
    40   17   20 1
    41   17   55 1
    42   18   19 2
    43   20   21 1
    44   21   22 2
    45   21   23 2
    46   21   24 1
    47   24   25 1
    48   24   67 1
    49   25   30 ar
    50   25   26 ar
    51   26   27 ar
    52   26   56 1
    53   27   28 ar
    54   27   57 1
    55   28   29 ar
    56   28   31 1
    57   29   30 ar
    58   30   58 1
    59   31   36 1
    60   31   32 1
    61   32   33 1
    62   32   59 1
    63   32   60 1
    64   33   34 1
    65   33   61 1
    66   33   62 1
    67   34   35 1
    68   35   36 1
    69   35   63 1
    70   35   64 1
    71   36   65 1
    72   36   66 1
@<TRIPOS>MOLECULE
CHEMBL202171__2
   66    71     0     0     0
SMALL
USER_CHARGES

@<TRIPOS>ATOM
      1 C1          0.7446    2.2065    0.1854 C.3       1 <0>         0.0270
      2 O1          0.5085    0.7973    0.1683 O.3       1 <0>        -0.3190
      3 C2          0.9624    0.1088   -0.9119 C.ar      1 <0>         0.1309
      4 C3          1.6262    0.7772   -1.9307 C.ar      1 <0>        -0.2123
      5 C4          2.0882    0.0793   -3.0324 C.ar      1 <0>        -0.0683
      6 C5          1.8861   -1.2804   -3.1103 C.ar      1 <0>        -0.1259
      7 C6          1.2244   -1.9514   -2.0923 C.ar      1 <0>        -0.0360
      8 C7          0.7660   -1.2644   -0.9920 C.ar      1 <0>        -0.1447
      9 C8          1.0409   -3.4390   -2.2418 C.3       1 <0>        -0.0910
     10 C9          2.3528   -4.0740   -2.6910 C.3       1 <0>         0.1198
     11 N1          2.9684   -3.3332   -3.8035 N.am      1 <0>        -0.5952
     12 C10         2.3646   -2.0942   -4.2851 C.3       1 <0>         0.1848
     13 C11         3.3192   -1.2643   -5.1311 C.3       1 <0>         0.1556
     14 C12         4.3228   -0.5181   -4.2567 C.3       1 <0>        -0.1634
     15 C13         5.2741   -1.4972   -3.5700 C.3       1 <0>        -0.1180
     16 C14         5.9884   -2.3529   -4.6218 C.3       1 <0>        -0.1246
     17 C15         4.9138   -3.1572   -5.3812 C.3       1 <0>         0.1509
     18 C16         4.0774   -3.8652   -4.3466 C.2       1 <0>         0.5220
     19 O2          4.4220   -4.9706   -3.9856 O.2       1 <0>        -0.5467
     20 N2          4.0439   -2.1634   -6.0476 N.pl3     1 <0>        -0.9836
     21 S1          3.8954   -2.0685   -7.6942 S.o2      1 <0>         2.7100
     22 O3          4.2375   -3.3487   -8.2072 O.2       1 <0>        -1.0431
     23 O4          2.6408   -1.4540   -7.9540 O.2       1 <0>        -1.0451
     24 N3          5.0573   -1.0176   -8.2308 N.2       1 <0>        -1.1003
     25 C17         5.1714   -0.7387   -9.5985 C.ar      1 <0>         0.1996
     26 C18         6.1502    0.1401  -10.0602 C.ar      1 <0>        -0.1063
     27 C19         6.2264    0.3863  -11.4188 C.ar      1 <0>        -0.1832
     28 C20         5.3304   -0.2466  -12.2738 C.ar      1 <0>         0.2997
     29 N4          4.4135   -1.0749  -11.8003 N.ar      1 <0>        -0.4958
     30 C21         4.3161   -1.3376  -10.5104 C.ar      1 <0>        -0.0093
     31 N5          5.3988   -0.0055  -13.6442 N.pl3     1 <0>        -0.6289
     32 C22         4.6228   -0.8166  -14.5957 C.3       1 <0>         0.1003
     33 C23         3.8562    0.1307  -15.5257 C.3       1 <0>         0.0466
     34 O5          4.7684    1.0744  -16.0923 O.3       1 <0>        -0.3870
     35 C24         5.4028    1.9236  -15.1331 C.3       1 <0>         0.0464
     36 C25         6.2443    1.0719  -14.1825 C.3       1 <0>         0.1012
     37 H1          1.8174    2.3957    0.1471 H         1 <0>         0.0560
     38 H2          0.2635    2.6660   -0.6780 H         1 <0>         0.0565
     39 H3          0.3329    2.6328    1.1003 H         1 <0>         0.0983
     40 H4          1.7821    1.8438   -1.8637 H         1 <0>         0.1306
     41 H5          2.6041    0.5981   -3.8268 H         1 <0>         0.1528
     42 H6          0.2538   -1.7879   -0.1983 H         1 <0>         0.1316
     43 H7          0.7402   -3.8655   -1.2848 H         1 <0>         0.0929
     44 H8          0.2687   -3.6365   -2.9853 H         1 <0>         0.0881
     45 H9          3.0454   -4.0905   -1.8494 H         1 <0>         0.0676
     46 H10         2.1602   -5.0982   -3.0102 H         1 <0>         0.0785
     47 H11         1.5022   -2.3481   -4.9015 H         1 <0>         0.0849
     48 H12         2.7493   -0.5396   -5.7124 H         1 <0>         0.1129
     49 H13         4.8996    0.1675   -4.8773 H         1 <0>         0.0818
     50 H14         3.7848    0.0511   -3.4986 H         1 <0>         0.1027
     51 H15         6.0129   -0.9403   -2.9936 H         1 <0>         0.0646
     52 H16         4.7070   -2.1443   -2.9009 H         1 <0>         0.0626
     53 H17         6.5282   -1.7097   -5.3167 H         1 <0>         0.0935
     54 H18         6.6836   -3.0352   -4.1327 H         1 <0>         0.0736
     55 H19         5.3579   -3.8571   -6.0891 H         1 <0>         0.1370
     56 H20         6.8326    0.6178   -9.3728 H         1 <0>         0.1235
     57 H21         6.9722    1.0619  -11.8110 H         1 <0>         0.1157
     58 H22         3.5584   -2.0233  -10.1610 H         1 <0>         0.1232
     59 H23         5.2975   -1.4403  -15.1820 H         1 <0>         0.0545
     60 H24         3.9188   -1.4467  -14.0521 H         1 <0>         0.1001
     61 H25         3.3851   -0.4442  -16.3230 H         1 <0>         0.0971
     62 H26         3.0917    0.6597  -14.9567 H         1 <0>         0.0527
     63 H27         6.0445    2.6387  -15.6479 H         1 <0>         0.0982
     64 H28         4.6440    2.4592  -14.5627 H         1 <0>         0.0521
     65 H29         6.6137    1.6917  -13.3655 H         1 <0>         0.0882
     66 H30         7.0851    0.6415  -14.7265 H         1 <0>         0.0608
@<TRIPOS>BOND
     1    1    2 1
     2    1   37 1
     3    1   38 1
     4    1   39 1
     5    2    3 1
     6    3    8 ar
     7    3    4 ar
     8    4    5 ar
     9    4   40 1
    10    5    6 ar
    11    5   41 1
    12    6   12 1
    13    6    7 ar
    14    7    8 ar
    15    7    9 1
    16    8   42 1
    17    9   10 1
    18    9   43 1
    19    9   44 1
    20   10   11 1
    21   10   45 1
    22   10   46 1
    23   11   18 am
    24   11   12 1
    25   12   13 1
    26   12   47 1
    27   13   20 1
    28   13   14 1
    29   13   48 1
    30   14   15 1
    31   14   49 1
    32   14   50 1
    33   15   16 1
    34   15   51 1
    35   15   52 1
    36   16   17 1
    37   16   53 1
    38   16   54 1
    39   17   18 1
    40   17   20 1
    41   17   55 1
    42   18   19 2
    43   20   21 1
    44   21   22 2
    45   21   23 2
    46   21   24 1
    47   24   25 1
    48   25   30 ar
    49   25   26 ar
    50   26   27 ar
    51   26   56 1
    52   27   28 ar
    53   27   57 1
    54   28   29 ar
    55   28   31 1
    56   29   30 ar
    57   30   58 1
    58   31   36 1
    59   31   32 1
    60   32   33 1
    61   32   59 1
    62   32   60 1
    63   33   34 1
    64   33   61 1
    65   33   62 1
    66   34   35 1
    67   35   36 1
    68   35   63 1
    69   35   64 1
    70   36   65 1
    71   36   66 1
@<TRIPOS>MOLECULE
CHEMBL202171__3
   67    72     0     0     0
SMALL
USER_CHARGES

@<TRIPOS>ATOM
      1 C1          0.2787   -0.1827    0.0702 C.3       1 <0>         0.0260
      2 O1          0.0598   -1.5919    0.1608 O.3       1 <0>        -0.3157
      3 C2         -1.2312   -2.0156    0.1822 C.ar      1 <0>         0.1394
      4 C3         -2.2646   -1.0924    0.1115 C.ar      1 <0>        -0.2123
      5 C4         -3.5802   -1.5205    0.1344 C.ar      1 <0>        -0.0725
      6 C5         -3.8562   -2.8663    0.2267 C.ar      1 <0>        -0.1366
      7 C6         -2.8248   -3.7915    0.2956 C.ar      1 <0>        -0.0318
      8 C7         -1.5146   -3.3731    0.2691 C.ar      1 <0>        -0.1415
      9 C8         -3.1993   -5.2473    0.3920 C.3       1 <0>        -0.0934
     10 C9         -4.2877   -5.5645   -0.6282 C.3       1 <0>         0.1196
     11 N1         -5.3676   -4.5651   -0.6073 N.am      1 <0>        -0.5939
     12 C10        -5.2679   -3.3930    0.2575 C.3       1 <0>         0.1890
     13 C11        -6.2379   -2.2880   -0.1348 C.3       1 <0>         0.1485
     14 C12        -5.7334   -1.5196   -1.3529 C.3       1 <0>        -0.1658
     15 C13        -5.7441   -2.4092   -2.5953 C.3       1 <0>        -0.1218
     16 C14        -7.1567   -2.9539   -2.8331 C.3       1 <0>        -0.1243
     17 C15        -7.5424   -3.8090   -1.6090 C.3       1 <0>         0.1453
     18 C16        -6.4303   -4.8035   -1.3957 C.2       1 <0>         0.5194
     19 O2         -6.4974   -5.8729   -1.9639 O.2       1 <0>        -0.5313
     20 N2         -7.5452   -2.8937   -0.4467 N.pl3     1 <0>        -1.0001
     21 S1         -8.9101   -2.5751    0.4353 S.o2      1 <0>         2.7825
     22 O3         -9.7825   -3.6809    0.2473 O.2       1 <0>        -0.9578
     23 O4         -8.4741   -2.1589    1.7221 O.2       1 <0>        -0.9614
     24 N3         -9.6482   -1.2662   -0.2605 N.pl3     1 <0>        -1.0539
     25 C17       -10.1663   -1.3622   -1.5581 C.ar      1 <0>         0.0250
     26 C18        -9.9313   -0.3508   -2.4884 C.ar      1 <0>        -0.0367
     27 C19       -10.4621   -0.4874   -3.7579 C.ar      1 <0>        -0.2215
     28 C20       -11.2077   -1.6212   -4.0627 C.ar      1 <0>         0.4021
     29 N4        -11.4111   -2.5615   -3.1542 N.ar      1 <0>        -0.5161
     30 C21       -10.9144   -2.4669   -1.9349 C.ar      1 <0>         0.1295
     31 N5        -11.7469   -1.7684   -5.3388 N.pl3     1 <0>        -0.6112
     32 C22       -12.3474   -3.0424   -5.7651 C.3       1 <0>         0.0886
     33 C23       -13.7345   -2.7516   -6.3492 C.3       1 <0>         0.0456
     34 O5        -13.6205   -1.7372   -7.3501 O.3       1 <0>        -0.3791
     35 C24       -13.1503   -0.4799   -6.8582 C.3       1 <0>         0.0462
     36 C25       -11.7383   -0.6527   -6.2981 C.3       1 <0>         0.0887
     37 H1          1.3499    0.0189    0.0622 H         1 <0>         0.1021
     38 H2         -0.1691    0.1963   -0.8484 H         1 <0>         0.0568
     39 H3         -0.1776    0.3118    0.9278 H         1 <0>         0.0576
     40 H4         -2.0418   -0.0381    0.0388 H         1 <0>         0.1323
     41 H5         -4.3858   -0.8032    0.0806 H         1 <0>         0.1482
     42 H6         -0.7121   -4.0942    0.3195 H         1 <0>         0.1353
     43 H7         -2.3221   -5.8619    0.1898 H         1 <0>         0.0972
     44 H8         -3.5685   -5.4614    1.3950 H         1 <0>         0.0903
     45 H9         -3.8448   -5.5875   -1.6239 H         1 <0>         0.0715
     46 H10        -4.7077   -6.5454   -0.4056 H         1 <0>         0.0831
     47 H11        -5.4992   -3.6973    1.2783 H         1 <0>         0.0895
     48 H12        -6.3512   -1.5946    0.6985 H         1 <0>         0.1178
     49 H13        -6.3761   -0.6561   -1.5241 H         1 <0>         0.0750
     50 H14        -4.7158   -1.1773   -1.1652 H         1 <0>         0.1161
     51 H15        -5.4304   -1.8259   -3.4611 H         1 <0>         0.0717
     52 H16        -5.0546   -3.2410   -2.4512 H         1 <0>         0.0710
     53 H17        -7.8581   -2.1268   -2.9418 H         1 <0>         0.0829
     54 H18        -7.1685   -3.5698   -3.7324 H         1 <0>         0.0828
     55 H19        -8.5043   -4.3025   -1.7476 H         1 <0>         0.1410
     56 H20        -9.3486    0.5191   -2.2236 H         1 <0>         0.1391
     57 H21       -10.3001    0.2771   -4.5034 H         1 <0>         0.1375
     58 H22       -11.0967   -3.2568   -1.2214 H         1 <0>         0.1837
     59 H23       -11.7195   -3.5083   -6.5246 H         1 <0>         0.0716
     60 H24       -12.4425   -3.7086   -4.9076 H         1 <0>         0.1078
     61 H25       -14.1392   -3.6599   -6.7958 H         1 <0>         0.1070
     62 H26       -14.3987   -2.4078   -5.5563 H         1 <0>         0.0562
     63 H27       -13.1346    0.2462   -7.6709 H         1 <0>         0.1078
     64 H28       -13.8123   -0.1278   -6.0671 H         1 <0>         0.0555
     65 H29       -11.4302    0.2630   -5.7934 H         1 <0>         0.0931
     66 H30       -11.0480   -0.8738   -7.1122 H         1 <0>         0.0775
     67 H31        -9.7218   -0.4329    0.2306 H         1 <0>         0.4243
@<TRIPOS>BOND
     1    1    2 1
     2    1   37 1
     3    1   38 1
     4    1   39 1
     5    2    3 1
     6    3    8 ar
     7    3    4 ar
     8    4    5 ar
     9    4   40 1
    10    5    6 ar
    11    5   41 1
    12    6   12 1
    13    6    7 ar
    14    7    8 ar
    15    7    9 1
    16    8   42 1
    17    9   10 1
    18    9   43 1
    19    9   44 1
    20   10   11 1
    21   10   45 1
    22   10   46 1
    23   11   18 am
    24   11   12 1
    25   12   13 1
    26   12   47 1
    27   13   20 1
    28   13   14 1
    29   13   48 1
    30   14   15 1
    31   14   49 1
    32   14   50 1
    33   15   16 1
    34   15   51 1
    35   15   52 1
    36   16   17 1
    37   16   53 1
    38   16   54 1
    39   17   18 1
    40   17   20 1
    41   17   55 1
    42   18   19 2
    43   20   21 1
    44   21   22 2
    45   21   23 2
    46   21   24 1
    47   24   25 1
    48   24   67 1
    49   25   30 ar
    50   25   26 ar
    51   26   27 ar
    52   26   56 1
    53   27   28 ar
    54   27   57 1
    55   28   29 ar
    56   28   31 1
    57   29   30 ar
    58   30   58 1
    59   31   36 1
    60   31   32 1
    61   32   33 1
    62   32   59 1
    63   32   60 1
    64   33   34 1
    65   33   61 1
    66   33   62 1
    67   34   35 1
    68   35   36 1
    69   35   63 1
    70   35   64 1
    71   36   65 1
    72   36   66 1
@<TRIPOS>MOLECULE
CHEMBL202171__4
   66    71     0     0     0
SMALL
USER_CHARGES

@<TRIPOS>ATOM
      1 C1          0.1375    0.5607    0.6807 C.3       1 <0>         0.0273
      2 O1          0.0697   -0.8447    0.4309 O.3       1 <0>        -0.3190
      3 C2          0.6603   -1.2985   -0.7057 C.ar      1 <0>         0.1300
      4 C3          1.2967   -0.4085   -1.5590 C.ar      1 <0>        -0.2128
      5 C4          1.8997   -0.8673   -2.7167 C.ar      1 <0>        -0.0716
      6 C5          1.8635   -2.2107   -3.0162 C.ar      1 <0>        -0.1256
      7 C6          1.2266   -3.1026   -2.1656 C.ar      1 <0>        -0.0347
      8 C7          0.6312   -2.6542   -1.0093 C.ar      1 <0>        -0.1443
      9 C8          1.2215   -4.5570   -2.5578 C.3       1 <0>        -0.0911
     10 C9          0.8491   -4.6878   -4.0311 C.3       1 <0>         0.1214
     11 N1          1.6004   -3.7431   -4.8729 N.am      1 <0>        -0.5908
     12 C10         2.5019   -2.7709   -4.2612 C.3       1 <0>         0.1859
     13 C11         2.8718   -1.6364   -5.2057 C.3       1 <0>         0.1540
     14 C12         1.7385   -0.6207   -5.3172 C.3       1 <0>        -0.1645
     15 C13         0.5285   -1.2352   -6.0193 C.3       1 <0>        -0.1205
     16 C14         0.9379   -1.7593   -7.3999 C.3       1 <0>        -0.1242
     17 C15         1.9990   -2.8585   -7.1888 C.3       1 <0>         0.1528
     18 C16         1.4257   -3.8433   -6.2024 C.2       1 <0>         0.5255
     19 O2          0.7741   -4.7729   -6.6292 O.2       1 <0>        -0.5486
     20 N2          3.1537   -2.2021   -6.5375 N.pl3     1 <0>        -0.9835
     21 S1          4.6462   -2.1096   -7.2491 S.o2      1 <0>         2.7104
     22 O3          4.4357   -2.2201   -8.6501 O.2       1 <0>        -1.0423
     23 O4          5.3070   -0.9963   -6.6635 O.2       1 <0>        -1.0444
     24 N3          5.4920   -3.4573   -6.7898 N.2       1 <0>        -1.1031
     25 C17         6.8021   -3.6507   -7.2452 C.ar      1 <0>         0.2005
     26 C18         7.5199   -4.7849   -6.8685 C.ar      1 <0>        -0.1061
     27 C19         8.8105   -4.9350   -7.3418 C.ar      1 <0>        -0.1827
     28 C20         9.3461   -3.9562   -8.1722 C.ar      1 <0>         0.2996
     29 N4          8.6358   -2.8919   -8.5091 N.ar      1 <0>        -0.4957
     30 C21         7.3992   -2.7195   -8.0808 C.ar      1 <0>        -0.0097
     31 N5         10.6455   -4.0978   -8.6545 N.pl3     1 <0>        -0.6289
     32 C22        11.1656   -3.2061   -9.7031 C.3       1 <0>         0.1005
     33 C23        12.5155   -2.6483   -9.2377 C.3       1 <0>         0.0467
     34 O5         13.3630   -3.7315   -8.8474 O.3       1 <0>        -0.3871
     35 C24        12.8702   -4.4910   -7.7411 C.3       1 <0>         0.0465
     36 C25        11.5403   -5.1395   -8.1258 C.3       1 <0>         0.1011
     37 H1          1.1812    0.8673    0.7504 H         1 <0>         0.0563
     38 H2         -0.3455    1.0984   -0.1351 H         1 <0>         0.0554
     39 H3         -0.3714    0.7882    1.6174 H         1 <0>         0.0981
     40 H4          1.3211    0.6443   -1.3192 H         1 <0>         0.1296
     41 H5          2.3956   -0.1757   -3.3817 H         1 <0>         0.1515
     42 H6          0.1413   -3.3501   -0.3445 H         1 <0>         0.1316
     43 H7          2.2127   -4.9804   -2.3949 H         1 <0>         0.0902
     44 H8          0.4933   -5.0943   -1.9502 H         1 <0>         0.0920
     45 H9          1.0618   -5.7044   -4.3619 H         1 <0>         0.0792
     46 H10        -0.2175   -4.4948   -4.1460 H         1 <0>         0.0656
     47 H11         3.4201   -3.2843   -3.9757 H         1 <0>         0.0926
     48 H12         3.7629   -1.1319   -4.8320 H         1 <0>         0.1140
     49 H13         1.4474   -0.2967   -4.3180 H         1 <0>         0.1072
     50 H14         2.0843    0.2418   -5.8869 H         1 <0>         0.0729
     51 H15         0.1414   -2.0589   -5.4195 H         1 <0>         0.0673
     52 H16        -0.2465   -0.4775   -6.1349 H         1 <0>         0.0651
     53 H17         0.0694   -2.1772   -7.9089 H         1 <0>         0.0777
     54 H18         1.3596   -0.9478   -7.9930 H         1 <0>         0.0816
     55 H19         2.2738   -3.3405   -8.1270 H         1 <0>         0.1358
     56 H20         7.0784   -5.5288   -6.2219 H         1 <0>         0.1230
     57 H21         9.3953   -5.8012   -7.0697 H         1 <0>         0.1158
     58 H22         6.8479   -1.8406   -8.3810 H         1 <0>         0.1234
     59 H23        11.2993   -3.7665  -10.6284 H         1 <0>         0.0543
     60 H24        10.4666   -2.3861   -9.8677 H         1 <0>         0.1000
     61 H25        12.9823   -2.0966  -10.0537 H         1 <0>         0.0970
     62 H26        12.3611   -1.9826   -8.3885 H         1 <0>         0.0526
     63 H27        13.5921   -5.2649   -7.4803 H         1 <0>         0.0982
     64 H28        12.7171   -3.8320   -6.8864 H         1 <0>         0.0521
     65 H29        11.0893   -5.5992   -7.2464 H         1 <0>         0.0882
     66 H30        11.7124   -5.8979   -8.8896 H         1 <0>         0.0608
@<TRIPOS>BOND
     1    1    2 1
     2    1   37 1
     3    1   38 1
     4    1   39 1
     5    2    3 1
     6    3    8 ar
     7    3    4 ar
     8    4    5 ar
     9    4   40 1
    10    5    6 ar
    11    5   41 1
    12    6   12 1
    13    6    7 ar
    14    7    8 ar
    15    7    9 1
    16    8   42 1
    17    9   10 1
    18    9   43 1
    19    9   44 1
    20   10   11 1
    21   10   45 1
    22   10   46 1
    23   11   18 am
    24   11   12 1
    25   12   13 1
    26   12   47 1
    27   13   20 1
    28   13   14 1
    29   13   48 1
    30   14   15 1
    31   14   49 1
    32   14   50 1
    33   15   16 1
    34   15   51 1
    35   15   52 1
    36   16   17 1
    37   16   53 1
    38   16   54 1
    39   17   18 1
    40   17   20 1
    41   17   55 1
    42   18   19 2
    43   20   21 1
    44   21   22 2
    45   21   23 2
    46   21   24 1
    47   24   25 1
    48   25   30 ar
    49   25   26 ar
    50   26   27 ar
    51   26   56 1
    52   27   28 ar
    53   27   57 1
    54   28   29 ar
    55   28   31 1
    56   29   30 ar
    57   30   58 1
    58   31   36 1
    59   31   32 1
    60   32   33 1
    61   32   59 1
    62   32   60 1
    63   33   34 1
    64   33   61 1
    65   33   62 1
    66   34   35 1
    67   35   36 1
    68   35   63 1
    69   35   64 1
    70   36   65 1
    71   36   66 1
@<TRIPOS>MOLECULE
CHEMBL202171__5
   67    72     0     0     0
SMALL
USER_CHARGES

@<TRIPOS>ATOM
      1 C1         -0.6883    1.8836    1.4273 C.3       1 <0>         0.0258
      2 O1         -0.5871    0.4581    1.4279 O.3       1 <0>        -0.3158
      3 C2         -1.7351   -0.2419    1.2310 C.ar      1 <0>         0.1402
      4 C3         -2.9325    0.4313    1.0356 C.ar      1 <0>        -0.2118
      5 C4         -4.1031   -0.2784    0.8342 C.ar      1 <0>        -0.0722
      6 C5         -4.0719   -1.6549    0.8295 C.ar      1 <0>        -0.1391
      7 C6         -2.8763   -2.3306    1.0261 C.ar      1 <0>        -0.0324
      8 C7         -1.7076   -1.6312    1.2199 C.ar      1 <0>        -0.1425
      9 C8         -2.9165   -3.8363    1.0133 C.3       1 <0>        -0.0914
     10 C9         -4.0842   -4.3237    1.8650 C.3       1 <0>         0.1213
     11 N1         -5.3253   -3.5922    1.5647 N.am      1 <0>        -0.5917
     12 C10        -5.3127   -2.4831    0.6150 C.3       1 <0>         0.1896
     13 C11        -6.5471   -1.6000    0.7257 C.3       1 <0>         0.1463
     14 C12        -6.4493   -0.6647    1.9274 C.3       1 <0>        -0.1649
     15 C13        -6.5072   -1.4547    3.2340 C.3       1 <0>        -0.1245
     16 C14        -7.7942   -2.2852    3.2841 C.3       1 <0>        -0.1238
     17 C15        -7.7573   -3.2793    2.1055 C.3       1 <0>         0.1459
     18 C16        -6.4422   -4.0113    2.1851 C.2       1 <0>         0.5175
     19 O2         -6.3887   -5.0295    2.8418 O.2       1 <0>        -0.5304
     20 N2         -7.7340   -2.4619    0.8727 N.pl3     1 <0>        -0.9996
     21 S1         -8.9468   -2.5109   -0.2539 S.o2      1 <0>         2.7828
     22 O3        -10.1130   -2.9579    0.4239 O.2       1 <0>        -0.9577
     23 O4         -8.8995   -1.2761   -0.9555 O.2       1 <0>        -0.9615
     24 N3         -8.5527   -3.6913   -1.3465 N.pl3     1 <0>        -1.0551
     25 C17        -8.4909   -5.0299   -0.9394 C.ar      1 <0>         0.0212
     26 C18        -7.4224   -5.8369   -1.3275 C.ar      1 <0>        -0.0357
     27 C19        -7.4024   -7.1526   -0.9024 C.ar      1 <0>        -0.2190
     28 C20        -8.4415   -7.6241   -0.1072 C.ar      1 <0>         0.4062
     29 N4         -9.4404   -6.8295    0.2418 N.ar      1 <0>        -0.5159
     30 C21        -9.4886   -5.5672   -0.1407 C.ar      1 <0>         0.1289
     31 N5         -8.4308   -8.9480    0.3264 N.pl3     1 <0>        -0.6103
     32 C22        -9.3857   -9.4204    1.3414 C.3       1 <0>         0.0895
     33 C23       -10.0592  -10.6934    0.8164 C.3       1 <0>         0.0461
     34 O5         -9.0535  -11.6242    0.4089 O.3       1 <0>        -0.3792
     35 C24        -8.2317  -11.1644   -0.6667 C.3       1 <0>         0.0468
     36 C25        -7.4683   -9.9168   -0.2217 C.3       1 <0>         0.0889
     37 H1          0.2974    2.3178    1.5945 H         1 <0>         0.1023
     38 H2         -1.0751    2.2199    0.4654 H         1 <0>         0.0579
     39 H3         -1.3643    2.2002    2.2216 H         1 <0>         0.0574
     40 H4         -2.9510    1.5111    1.0412 H         1 <0>         0.1329
     41 H5         -5.0358    0.2443    0.6818 H         1 <0>         0.1501
     42 H6         -0.7763   -2.1580    1.3664 H         1 <0>         0.1347
     43 H7         -3.0428   -4.1874   -0.0109 H         1 <0>         0.0880
     44 H8         -1.9834   -4.2278    1.4184 H         1 <0>         0.0960
     45 H9         -4.2432   -5.3852    1.6750 H         1 <0>         0.0805
     46 H10        -3.8372   -4.1863    2.9177 H         1 <0>         0.0702
     47 H11        -5.2818   -2.8938   -0.3942 H         1 <0>         0.0839
     48 H12        -6.6454   -1.0021   -0.1803 H         1 <0>         0.1194
     49 H13        -5.5080   -0.1172    1.8804 H         1 <0>         0.1162
     50 H14        -7.2774    0.0436    1.8992 H         1 <0>         0.0788
     51 H15        -5.6451   -2.1189    3.2941 H         1 <0>         0.0701
     52 H16        -6.4895   -0.7632    4.0764 H         1 <0>         0.0740
     53 H17        -7.8452   -2.8310    4.2262 H         1 <0>         0.0859
     54 H18        -8.6603   -1.6305    3.1881 H         1 <0>         0.0872
     55 H19        -8.6035   -3.9659    2.1292 H         1 <0>         0.1381
     56 H20        -6.6291   -5.4438   -1.9460 H         1 <0>         0.1368
     57 H21        -6.5901   -7.8060   -1.1846 H         1 <0>         0.1364
     58 H22       -10.3172   -4.9470    0.1681 H         1 <0>         0.1834
     59 H23        -8.8568   -9.6406    2.2687 H         1 <0>         0.0715
     60 H24       -10.1395   -8.6538    1.5213 H         1 <0>         0.1071
     61 H25       -10.6666  -11.1361    1.6058 H         1 <0>         0.1068
     62 H26       -10.6924  -10.4455   -0.0355 H         1 <0>         0.0559
     63 H27        -7.5243  -11.9459   -0.9443 H         1 <0>         0.1077
     64 H28        -8.8582  -10.9182   -1.5240 H         1 <0>         0.0553
     65 H29        -6.9529   -9.4788   -1.0764 H         1 <0>         0.0923
     66 H30        -6.7431  -10.1878    0.5455 H         1 <0>         0.0773
     67 H31        -8.3647   -3.4557   -2.2684 H         1 <0>         0.4238
@<TRIPOS>BOND
     1    1    2 1
     2    1   37 1
     3    1   38 1
     4    1   39 1
     5    2    3 1
     6    3    8 ar
     7    3    4 ar
     8    4    5 ar
     9    4   40 1
    10    5    6 ar
    11    5   41 1
    12    6   12 1
    13    6    7 ar
    14    7    8 ar
    15    7    9 1
    16    8   42 1
    17    9   10 1
    18    9   43 1
    19    9   44 1
    20   10   11 1
    21   10   45 1
    22   10   46 1
    23   11   18 am
    24   11   12 1
    25   12   13 1
    26   12   47 1
    27   13   20 1
    28   13   14 1
    29   13   48 1
    30   14   15 1
    31   14   49 1
    32   14   50 1
    33   15   16 1
    34   15   51 1
    35   15   52 1
    36   16   17 1
    37   16   53 1
    38   16   54 1
    39   17   18 1
    40   17   20 1
    41   17   55 1
    42   18   19 2
    43   20   21 1
    44   21   22 2
    45   21   23 2
    46   21   24 1
    47   24   25 1
    48   24   67 1
    49   25   30 ar
    50   25   26 ar
    51   26   27 ar
    52   26   56 1
    53   27   28 ar
    54   27   57 1
    55   28   29 ar
    56   28   31 1
    57   29   30 ar
    58   30   58 1
    59   31   36 1
    60   31   32 1
    61   32   33 1
    62   32   59 1
    63   32   60 1
    64   33   34 1
    65   33   61 1
    66   33   62 1
    67   34   35 1
    68   35   36 1
    69   35   63 1
    70   35   64 1
    71   36   65 1
    72   36   66 1
@<TRIPOS>MOLECULE
CHEMBL202171__6
   66    71     0     0     0
SMALL
USER_CHARGES

@<TRIPOS>ATOM
      1 C1          0.9033    2.5688   -0.4478 C.3       1 <0>         0.0270
      2 O1          0.8285    1.1557   -0.2490 O.3       1 <0>        -0.3196
      3 C2          1.2925    0.3660   -1.2530 C.ar      1 <0>         0.1291
      4 C3          1.8148    0.9381   -2.4042 C.ar      1 <0>        -0.2003
      5 C4          2.2877    0.1278   -3.4147 C.ar      1 <0>        -0.0561
      6 C5          2.2416   -1.2536   -3.2909 C.ar      1 <0>        -0.1298
      7 C6          1.7151   -1.8269   -2.1525 C.ar      1 <0>        -0.0294
      8 C7          1.2511   -1.0119   -1.1287 C.ar      1 <0>        -0.1563
      9 C8          1.6079   -3.3172   -1.9661 C.3       1 <0>        -0.0985
     10 C9          2.5525   -4.0609   -2.9092 C.3       1 <0>         0.1050
     11 N1          2.3886   -3.4773   -4.2578 N.am      1 <0>        -0.5939
     12 C10         2.7846   -2.0888   -4.4189 C.3       1 <0>         0.1880
     13 C11         2.4257   -1.4877   -5.7660 C.3       1 <0>         0.1507
     14 C12         3.6207   -1.6215   -6.7194 C.3       1 <0>        -0.1307
     15 C13         3.9332   -3.1054   -6.9254 C.3       1 <0>        -0.1202
     16 C14         2.7165   -3.8123   -7.5258 C.3       1 <0>        -0.1226
     17 C15         1.5219   -3.6651   -6.5767 C.3       1 <0>         0.1475
     18 C16         1.8875   -4.2487   -5.2330 C.2       1 <0>         0.5270
     19 O2          1.7255   -5.4339   -5.0329 O.2       1 <0>        -0.5461
     20 N2          1.2909   -2.2206   -6.3551 N.pl3     1 <0>        -0.9805
     21 S1         -0.1394   -1.4808   -6.7415 S.o2      1 <0>         2.7108
     22 O3         -1.1353   -2.4944   -6.7366 O.2       1 <0>        -1.0457
     23 O4         -0.2295   -0.3202   -5.9265 O.2       1 <0>        -1.0398
     24 N3         -0.0101   -0.9519   -8.3054 N.2       1 <0>        -1.1028
     25 C17        -1.0812   -0.2809   -8.9085 C.ar      1 <0>         0.2003
     26 C18        -0.9837    0.1630  -10.2265 C.ar      1 <0>        -0.1070
     27 C19        -2.0659    0.8210  -10.7816 C.ar      1 <0>        -0.1832
     28 C20        -3.2078    1.0169  -10.0122 C.ar      1 <0>         0.2991
     29 N4         -3.2652    0.5823   -8.7637 N.ar      1 <0>        -0.4958
     30 C21        -2.2537   -0.0549   -8.2041 C.ar      1 <0>        -0.0093
     31 N5         -4.3035    1.6787  -10.5620 N.pl3     1 <0>        -0.6289
     32 C22        -5.5983    1.7100   -9.8635 C.3       1 <0>         0.1003
     33 C23        -6.0768    3.1649   -9.7971 C.3       1 <0>         0.0467
     34 O5         -6.0500    3.7296  -11.1102 O.3       1 <0>        -0.3870
     35 C24        -4.7468    3.7903  -11.6947 C.3       1 <0>         0.0465
     36 C25        -4.1986    2.3723  -11.8556 C.3       1 <0>         0.1013
     37 H1          1.9434    2.8607   -0.5931 H         1 <0>         0.0545
     38 H2          0.3225    2.8431   -1.3284 H         1 <0>         0.0576
     39 H3          0.5011    3.0805    0.4266 H         1 <0>         0.0977
     40 H4          1.8505    2.0125   -2.5083 H         1 <0>         0.1299
     41 H5          2.6970    0.5719   -4.3101 H         1 <0>         0.1305
     42 H6          0.8501   -1.4568   -0.2299 H         1 <0>         0.1284
     43 H7          1.8613   -3.5676   -0.9360 H         1 <0>         0.0884
     44 H8          0.5832   -3.6297   -2.1671 H         1 <0>         0.0833
     45 H9          3.5825   -3.9363   -2.5750 H         1 <0>         0.0753
     46 H10         2.2954   -5.1199   -2.9308 H         1 <0>         0.1040
     47 H11         3.8714   -2.0560   -4.3434 H         1 <0>         0.0840
     48 H12         2.1590   -0.4384   -5.6401 H         1 <0>         0.1170
     49 H13         3.3752   -1.1643   -7.6779 H         1 <0>         0.0874
     50 H14         4.4886   -1.1227   -6.2881 H         1 <0>         0.0721
     51 H15         4.7816   -3.2066   -7.6021 H         1 <0>         0.0692
     52 H16         4.1798   -3.5604   -5.9660 H         1 <0>         0.0600
     53 H17         2.4733   -3.3627   -8.4886 H         1 <0>         0.0910
     54 H18         2.9422   -4.8695   -7.6648 H         1 <0>         0.0757
     55 H19         0.6379   -4.1542   -6.9858 H         1 <0>         0.1334
     56 H20        -0.0840   -0.0029  -10.8004 H         1 <0>         0.1235
     57 H21        -2.0247    1.1787  -11.7999 H         1 <0>         0.1157
     58 H22        -2.3387   -0.4000   -7.1842 H         1 <0>         0.1225
     59 H23        -6.3250    1.1091  -10.4102 H         1 <0>         0.0545
     60 H24        -5.4804    1.3159   -8.8541 H         1 <0>         0.0999
     61 H25        -7.0945    3.1960   -9.4080 H         1 <0>         0.0970
     62 H26        -5.4182    3.7352   -9.1420 H         1 <0>         0.0525
     63 H27        -4.8077    4.2714  -12.6709 H         1 <0>         0.0982
     64 H28        -4.0834    4.3629  -11.0466 H         1 <0>         0.0520
     65 H29        -3.1544    2.4165  -12.1648 H         1 <0>         0.0882
     66 H30        -4.7821    1.8392  -12.6063 H         1 <0>         0.0608
@<TRIPOS>BOND
     1    1    2 1
     2    1   37 1
     3    1   38 1
     4    1   39 1
     5    2    3 1
     6    3    8 ar
     7    3    4 ar
     8    4    5 ar
     9    4   40 1
    10    5    6 ar
    11    5   41 1
    12    6   12 1
    13    6    7 ar
    14    7    8 ar
    15    7    9 1
    16    8   42 1
    17    9   10 1
    18    9   43 1
    19    9   44 1
    20   10   11 1
    21   10   45 1
    22   10   46 1
    23   11   18 am
    24   11   12 1
    25   12   13 1
    26   12   47 1
    27   13   20 1
    28   13   14 1
    29   13   48 1
    30   14   15 1
    31   14   49 1
    32   14   50 1
    33   15   16 1
    34   15   51 1
    35   15   52 1
    36   16   17 1
    37   16   53 1
    38   16   54 1
    39   17   18 1
    40   17   20 1
    41   17   55 1
    42   18   19 2
    43   20   21 1
    44   21   22 2
    45   21   23 2
    46   21   24 1
    47   24   25 1
    48   25   30 ar
    49   25   26 ar
    50   26   27 ar
    51   26   56 1
    52   27   28 ar
    53   27   57 1
    54   28   29 ar
    55   28   31 1
    56   29   30 ar
    57   30   58 1
    58   31   36 1
    59   31   32 1
    60   32   33 1
    61   32   59 1
    62   32   60 1
    63   33   34 1
    64   33   61 1
    65   33   62 1
    66   34   35 1
    67   35   36 1
    68   35   63 1
    69   35   64 1
    70   36   65 1
    71   36   66 1
@<TRIPOS>MOLECULE
CHEMBL202171__7
   67    72     0     0     0
SMALL
USER_CHARGES

@<TRIPOS>ATOM
      1 C1          0.2865    1.2176    0.4555 C.3       1 <0>         0.0261
      2 O1          0.3619   -0.1957    0.6530 O.3       1 <0>        -0.3166
      3 C2         -0.8087   -0.8855    0.6279 C.ar      1 <0>         0.1365
      4 C3         -2.0059   -0.2180    0.4120 C.ar      1 <0>        -0.2015
      5 C4         -3.1875   -0.9281    0.3833 C.ar      1 <0>        -0.0631
      6 C5         -3.1888   -2.3029    0.5725 C.ar      1 <0>        -0.1410
      7 C6         -2.0025   -2.9695    0.7965 C.ar      1 <0>        -0.0245
      8 C7         -0.8107   -2.2574    0.8121 C.ar      1 <0>        -0.1540
      9 C8         -1.9357   -4.4542    1.0385 C.3       1 <0>        -0.1007
     10 C9         -3.1982   -5.1528    0.5357 C.3       1 <0>         0.1052
     11 N1         -4.3609   -4.3820    1.0256 N.am      1 <0>        -0.5934
     12 C10        -4.5059   -3.0288    0.5171 C.3       1 <0>         0.1899
     13 C11        -5.6033   -2.2221    1.1880 C.3       1 <0>         0.1444
     14 C12        -6.8969   -2.3417    0.3712 C.3       1 <0>        -0.1304
     15 C13        -7.3335   -3.8081    0.3370 C.3       1 <0>        -0.1248
     16 C14        -7.5784   -4.3088    1.7617 C.3       1 <0>        -0.1224
     17 C15        -6.2877   -4.1755    2.5776 C.3       1 <0>         0.1420
     18 C16        -5.1941   -4.9651    1.8991 C.2       1 <0>         0.5252
     19 O2         -5.0676   -6.1453    2.1481 O.2       1 <0>        -0.5303
     20 N2         -5.8661   -2.7579    2.5355 N.pl3     1 <0>        -0.9964
     21 S1         -5.7020   -1.8395    3.9037 S.o2      1 <0>         2.7802
     22 O3         -5.4763   -2.7446    4.9757 O.2       1 <0>        -0.9596
     23 O4         -4.7933   -0.7946    3.5848 O.2       1 <0>        -0.9563
     24 N3         -7.1667   -1.1220    4.1904 N.pl3     1 <0>        -1.0551
     25 C17        -8.2809   -1.9080    4.5096 C.ar      1 <0>         0.0252
     26 C18        -9.5111   -1.6696    3.8985 C.ar      1 <0>        -0.0369
     27 C19       -10.5843   -2.4702    4.2440 C.ar      1 <0>        -0.2212
     28 C20       -10.4023   -3.4799    5.1831 C.ar      1 <0>         0.4016
     29 N4         -9.2200   -3.6775    5.7436 N.ar      1 <0>        -0.5160
     30 C21        -8.1728   -2.9365    5.4330 C.ar      1 <0>         0.1286
     31 N5        -11.4771   -4.2921    5.5382 N.pl3     1 <0>        -0.6113
     32 C22       -11.2764   -5.5009    6.3530 C.3       1 <0>         0.0886
     33 C23       -12.2665   -5.4653    7.5228 C.3       1 <0>         0.0456
     34 O5        -13.5863   -5.2532    7.0160 O.3       1 <0>        -0.3791
     35 C24       -13.7603   -4.0054    6.3402 C.3       1 <0>         0.0461
     36 C25       -12.8474   -3.9632    5.1146 C.3       1 <0>         0.0887
     37 H1          1.2884    1.6445    0.4989 H         1 <0>         0.1015
     38 H2         -0.1550    1.4252   -0.5193 H         1 <0>         0.0566
     39 H3         -0.3316    1.6611    1.2362 H         1 <0>         0.0574
     40 H4         -2.0122    0.8523    0.2675 H         1 <0>         0.1320
     41 H5         -4.1197   -0.4102    0.2126 H         1 <0>         0.1282
     42 H6          0.1219   -2.7774    0.9740 H         1 <0>         0.1322
     43 H7         -1.0698   -4.8626    0.5176 H         1 <0>         0.0933
     44 H8         -1.8276   -4.6375    2.1076 H         1 <0>         0.0852
     45 H9         -3.2005   -5.1731   -0.5541 H         1 <0>         0.0799
     46 H10        -3.2381   -6.1700    0.9254 H         1 <0>         0.1076
     47 H11        -4.7791   -3.1106   -0.5349 H         1 <0>         0.0910
     48 H12        -5.2985   -1.1782    1.2614 H         1 <0>         0.1215
     49 H13        -7.6780   -1.7396    0.8354 H         1 <0>         0.0795
     50 H14        -6.7199   -1.9903   -0.6453 H         1 <0>         0.0849
     51 H15        -8.2525   -3.8992   -0.2421 H         1 <0>         0.0766
     52 H16        -6.5518   -4.4083   -0.1287 H         1 <0>         0.0686
     53 H17        -8.3650   -3.7139    2.2259 H         1 <0>         0.0818
     54 H18        -7.8832   -5.3549    1.7320 H         1 <0>         0.0855
     55 H19        -6.4377   -4.5187    3.6012 H         1 <0>         0.1367
     56 H20        -9.6233   -0.8779    3.1726 H         1 <0>         0.1394
     57 H21       -11.5518   -2.3133    3.7905 H         1 <0>         0.1379
     58 H22        -7.2220   -3.1305    5.9071 H         1 <0>         0.1831
     59 H23       -11.4577   -6.3874    5.7454 H         1 <0>         0.0717
     60 H24       -10.2561   -5.5201    6.7360 H         1 <0>         0.1076
     61 H25       -12.2304   -6.4135    8.0592 H         1 <0>         0.1070
     62 H26       -12.0014   -4.6530    8.1995 H         1 <0>         0.0561
     63 H27       -14.7989   -3.9034    6.0258 H         1 <0>         0.1078
     64 H28       -13.5006   -3.1879    7.0127 H         1 <0>         0.0554
     65 H29       -12.8670   -2.9646    4.6780 H         1 <0>         0.0931
     66 H30       -13.1896   -4.6923    4.3802 H         1 <0>         0.0777
     67 H31        -7.2528   -0.1573    4.1372 H         1 <0>         0.4238
@<TRIPOS>BOND
     1    1    2 1
     2    1   37 1
     3    1   38 1
     4    1   39 1
     5    2    3 1
     6    3    8 ar
     7    3    4 ar
     8    4    5 ar
     9    4   40 1
    10    5    6 ar
    11    5   41 1
    12    6   12 1
    13    6    7 ar
    14    7    8 ar
    15    7    9 1
    16    8   42 1
    17    9   10 1
    18    9   43 1
    19    9   44 1
    20   10   11 1
    21   10   45 1
    22   10   46 1
    23   11   18 am
    24   11   12 1
    25   12   13 1
    26   12   47 1
    27   13   20 1
    28   13   14 1
    29   13   48 1
    30   14   15 1
    31   14   49 1
    32   14   50 1
    33   15   16 1
    34   15   51 1
    35   15   52 1
    36   16   17 1
    37   16   53 1
    38   16   54 1
    39   17   18 1
    40   17   20 1
    41   17   55 1
    42   18   19 2
    43   20   21 1
    44   21   22 2
    45   21   23 2
    46   21   24 1
    47   24   25 1
    48   24   67 1
    49   25   30 ar
    50   25   26 ar
    51   26   27 ar
    52   26   56 1
    53   27   28 ar
    54   27   57 1
    55   28   29 ar
    56   28   31 1
    57   29   30 ar
    58   30   58 1
    59   31   36 1
    60   31   32 1
    61   32   33 1
    62   32   59 1
    63   32   60 1
    64   33   34 1
    65   33   61 1
    66   33   62 1
    67   34   35 1
    68   35   36 1
    69   35   63 1
    70   35   64 1
    71   36   65 1
    72   36   66 1
@<TRIPOS>MOLECULE
CHEMBL370582
   58    62     0     0     0
SMALL
USER_CHARGES

@<TRIPOS>ATOM
      1 C1         -0.0173    1.4248    0.0099 C.3       1 <0>         0.0258
      2 O1          0.0021   -0.0041    0.0020 O.3       1 <0>        -0.3159
      3 C2         -1.2003   -0.6375    0.0101 C.ar      1 <0>         0.1369
      4 C3         -2.3757    0.0999    0.0195 C.ar      1 <0>        -0.2028
      5 C4         -3.5903   -0.5528    0.0329 C.ar      1 <0>        -0.0749
      6 C5         -3.6461   -1.9393    0.0338 C.ar      1 <0>        -0.1390
      7 C6         -2.4806   -2.6762    0.0136 C.ar      1 <0>        -0.0217
      8 C7         -1.2569   -2.0204    0.0032 C.ar      1 <0>        -0.1543
      9 C8         -2.4696   -4.1815   -0.0207 C.3       1 <0>        -0.1029
     10 C9         -3.8046   -4.7547    0.4522 C.3       1 <0>         0.1057
     11 N1         -4.8801   -4.0138   -0.2410 N.am      1 <0>        -0.5904
     12 C10        -4.9983   -2.5988    0.0666 C.3       1 <0>         0.1849
     13 C11        -5.9944   -1.8504   -0.8006 C.3       1 <0>         0.1447
     14 C12        -7.3559   -1.8084   -0.0936 C.3       1 <0>        -0.1290
     15 C13        -7.8658   -3.2388    0.0961 C.3       1 <0>        -0.1271
     16 C14        -8.0163   -3.9197   -1.2657 C.3       1 <0>        -0.1223
     17 C15        -6.6570   -3.9481   -1.9737 C.3       1 <0>         0.1400
     18 C16        -5.6644   -4.6784   -1.1014 C.2       1 <0>         0.5213
     19 O2         -5.5749   -5.8853   -1.1806 O.2       1 <0>        -0.5282
     20 N2         -6.1706   -2.5551   -2.0829 N.pl3     1 <0>        -0.9964
     21 S1         -5.8479   -1.8393   -3.5409 S.o2      1 <0>         2.7826
     22 O3         -6.6193   -2.5316   -4.5129 O.2       1 <0>        -0.9587
     23 O4         -5.9584   -0.4371   -3.3382 O.2       1 <0>        -0.9585
     24 N3         -4.2587   -2.1426   -3.8942 N.pl3     1 <0>        -1.0542
     25 C17        -3.8309   -3.4556   -4.1233 C.ar      1 <0>         0.0495
     26 C18        -2.6595   -3.9292   -3.5349 C.ar      1 <0>        -0.0456
     27 C19        -2.2757   -5.2337   -3.7891 C.ar      1 <0>        -0.1704
     28 C20        -3.0644   -6.0228   -4.6163 C.ar      1 <0>         0.3208
     29 N4         -4.1696   -5.5410   -5.1584 N.ar      1 <0>        -0.5120
     30 C21        -4.5701   -4.3037   -4.9341 C.ar      1 <0>         0.1158
     31 O5         -2.6957   -7.3044   -4.8716 O.3       1 <0>        -0.3050
     32 C22        -3.5476   -8.0660   -5.7297 C.3       1 <0>         0.0383
     33 H1          1.0053    1.8021    0.0021 H         1 <0>         0.1023
     34 H2         -0.5445    1.7859   -0.8732 H         1 <0>         0.0574
     35 H3         -0.5275    1.7763    0.9067 H         1 <0>         0.0574
     36 H4         -2.3395    1.1793    0.0166 H         1 <0>         0.1331
     37 H5         -4.5058    0.0200    0.0431 H         1 <0>         0.1314
     38 H6         -0.3418   -2.5939   -0.0062 H         1 <0>         0.1324
     39 H7         -2.2793   -4.5142   -1.0411 H         1 <0>         0.0864
     40 H8         -1.6738   -4.5479    0.6278 H         1 <0>         0.0925
     41 H9         -3.8628   -5.8134    0.1995 H         1 <0>         0.1066
     42 H10        -3.9017   -4.6251    1.5301 H         1 <0>         0.0788
     43 H11        -5.3620   -2.5249    1.0914 H         1 <0>         0.0914
     44 H12        -5.6331   -0.8386   -0.9846 H         1 <0>         0.1223
     45 H13        -7.2469   -1.3284    0.8789 H         1 <0>         0.0858
     46 H14        -8.0649   -1.2463   -0.7014 H         1 <0>         0.0831
     47 H15        -7.1560   -3.7989    0.7048 H         1 <0>         0.0678
     48 H16        -8.8330   -3.2152    0.5983 H         1 <0>         0.0789
     49 H17        -8.3741   -4.9395   -1.1247 H         1 <0>         0.0882
     50 H18        -8.7310   -3.3641   -1.8729 H         1 <0>         0.0873
     51 H19        -6.7381   -4.4222   -2.9519 H         1 <0>         0.1359
     52 H20        -3.6242   -1.4104   -3.9424 H         1 <0>         0.4257
     53 H21        -2.0654   -3.2927   -2.8959 H         1 <0>         0.1444
     54 H22        -1.3736   -5.6336   -3.3501 H         1 <0>         0.1469
     55 H23        -5.4814   -3.9463   -5.3905 H         1 <0>         0.1864
     56 H24        -3.1388   -9.0692   -5.8503 H         1 <0>         0.0980
     57 H25        -4.5430   -8.1296   -5.2901 H         1 <0>         0.0621
     58 H26        -3.6108   -7.5799   -6.7033 H         1 <0>         0.0603
@<TRIPOS>BOND
     1    1    2 1
     2    1   33 1
     3    1   34 1
     4    1   35 1
     5    2    3 1
     6    3    8 ar
     7    3    4 ar
     8    4    5 ar
     9    4   36 1
    10    5    6 ar
    11    5   37 1
    12    6   12 1
    13    6    7 ar
    14    7    8 ar
    15    7    9 1
    16    8   38 1
    17    9   10 1
    18    9   39 1
    19    9   40 1
    20   10   11 1
    21   10   41 1
    22   10   42 1
    23   11   18 am
    24   11   12 1
    25   12   13 1
    26   12   43 1
    27   13   20 1
    28   13   14 1
    29   13   44 1
    30   14   15 1
    31   14   45 1
    32   14   46 1
    33   15   16 1
    34   15   47 1
    35   15   48 1
    36   16   17 1
    37   16   49 1
    38   16   50 1
    39   17   18 1
    40   17   20 1
    41   17   51 1
    42   18   19 2
    43   20   21 1
    44   21   22 2
    45   21   23 2
    46   21   24 1
    47   24   25 1
    48   24   52 1
    49   25   30 ar
    50   25   26 ar
    51   26   27 ar
    52   26   53 1
    53   27   28 ar
    54   27   54 1
    55   28   29 ar
    56   28   31 1
    57   29   30 ar
    58   30   55 1
    59   31   32 1
    60   32   56 1
    61   32   57 1
    62   32   58 1
@<TRIPOS>MOLECULE
CHEMBL370582__1
   57    61     0     0     0
SMALL
USER_CHARGES

@<TRIPOS>ATOM
      1 C1         -0.0173    1.4248    0.0099 C.3       1 <0>         0.0280
      2 O1          0.0021   -0.0041    0.0020 O.3       1 <0>        -0.3193
      3 C2          0.6058   -0.6071   -1.0557 C.ar      1 <0>         0.1301
      4 C3          1.1736    0.1595   -2.0634 C.ar      1 <0>        -0.2018
      5 C4          1.7791   -0.4626   -3.1347 C.ar      1 <0>        -0.0678
      6 C5          1.8278   -1.8472   -3.2112 C.ar      1 <0>        -0.1227
      7 C6          1.2743   -2.6131   -2.2067 C.ar      1 <0>        -0.0168
      8 C7          0.6616   -1.9881   -1.1289 C.ar      1 <0>        -0.1511
      9 C8          1.3220   -4.1181   -2.2102 C.3       1 <0>        -0.0972
     10 C9          1.5885   -4.6592   -3.6139 C.3       1 <0>         0.1069
     11 N1          2.7147   -3.8891   -4.1837 N.am      1 <0>        -0.5879
     12 C10         2.4854   -2.4727   -4.4115 C.3       1 <0>         0.1911
     13 C11         3.7225   -1.6965   -4.8255 C.3       1 <0>         0.1495
     14 C12         3.7900   -1.6228   -6.3569 C.3       1 <0>        -0.1301
     15 C13         3.9028   -3.0406   -6.9219 C.3       1 <0>        -0.1229
     16 C14         5.1679   -3.7127   -6.3849 C.3       1 <0>        -0.1224
     17 C15         5.1023   -3.7727   -4.8546 C.3       1 <0>         0.1470
     18 C16         3.8622   -4.5308   -4.4459 C.2       1 <0>         0.5304
     19 O2          3.9048   -5.7393   -4.3530 O.2       1 <0>        -0.5483
     20 N2          4.9321   -2.3921   -4.3510 N.pl3     1 <0>        -0.9803
     21 S1          6.0224   -1.6794   -3.3284 S.o2      1 <0>         2.7105
     22 O3          7.2604   -2.3488   -3.5242 O.2       1 <0>        -1.0435
     23 O4          5.8802   -0.2757   -3.4974 O.2       1 <0>        -1.0427
     24 N3          5.5389   -2.0213   -1.7819 N.2       1 <0>        -1.0898
     25 C17         6.2796   -1.5423   -0.6950 C.ar      1 <0>         0.2169
     26 C18         5.8840   -1.8295    0.6103 C.ar      1 <0>        -0.1133
     27 C19         6.6468   -1.3355    1.6533 C.ar      1 <0>        -0.1375
     28 C20         7.7733   -0.5751    1.3677 C.ar      1 <0>         0.2022
     29 N4          8.1193   -0.3215    0.1173 N.ar      1 <0>        -0.4950
     30 C21         7.4196   -0.7806   -0.9030 C.ar      1 <0>        -0.0202
     31 O5          8.5281   -0.0860    2.3849 O.3       1 <0>        -0.3238
     32 C22         9.6745    0.6889    2.0277 C.3       1 <0>         0.0480
     33 H1          1.0053    1.8021    0.0021 H         1 <0>         0.0570
     34 H2         -0.5445    1.7859   -0.8732 H         1 <0>         0.0530
     35 H3         -0.5275    1.7763    0.9067 H         1 <0>         0.0968
     36 H4          1.1411    1.2376   -2.0090 H         1 <0>         0.1273
     37 H5          2.2188    0.1330   -3.9211 H         1 <0>         0.1272
     38 H6          0.2213   -2.5844   -0.3434 H         1 <0>         0.1273
     39 H7          2.1158   -4.4519   -1.5419 H         1 <0>         0.0890
     40 H8          0.3684   -4.5065   -1.8527 H         1 <0>         0.0848
     41 H9          1.8529   -5.7153   -3.5591 H         1 <0>         0.1028
     42 H10         0.7015   -4.5310   -4.2343 H         1 <0>         0.0725
     43 H11         1.7784   -2.3932   -5.2373 H         1 <0>         0.0802
     44 H12         3.6856   -0.6935   -4.4005 H         1 <0>         0.1177
     45 H13         2.8858   -1.1491   -6.7391 H         1 <0>         0.0765
     46 H14         4.6619   -1.0410   -6.6557 H         1 <0>         0.0773
     47 H15         3.0296   -3.6205   -6.6229 H         1 <0>         0.0651
     48 H16         3.9508   -2.9945   -8.0099 H         1 <0>         0.0698
     49 H17         5.2405   -4.7238   -6.7856 H         1 <0>         0.0799
     50 H18         6.0423   -3.1372   -6.6890 H         1 <0>         0.0810
     51 H19         5.9973   -4.2412   -4.4453 H         1 <0>         0.1333
     52 H20         5.0027   -2.4234    0.8029 H         1 <0>         0.1292
     53 H21         6.3694   -1.5383    2.6772 H         1 <0>         0.1239
     54 H22         7.7358   -0.5570   -1.9112 H         1 <0>         0.1249
     55 H23        10.3511    0.0810    1.4270 H         1 <0>         0.0483
     56 H24         9.3597    1.5592    1.4519 H         1 <0>         0.0480
     57 H25        10.1870    1.0174    2.9319 H         1 <0>         0.0811
@<TRIPOS>BOND
     1    1    2 1
     2    1   33 1
     3    1   34 1
     4    1   35 1
     5    2    3 1
     6    3    8 ar
     7    3    4 ar
     8    4    5 ar
     9    4   36 1
    10    5    6 ar
    11    5   37 1
    12    6   12 1
    13    6    7 ar
    14    7    8 ar
    15    7    9 1
    16    8   38 1
    17    9   10 1
    18    9   39 1
    19    9   40 1
    20   10   11 1
    21   10   41 1
    22   10   42 1
    23   11   18 am
    24   11   12 1
    25   12   13 1
    26   12   43 1
    27   13   20 1
    28   13   14 1
    29   13   44 1
    30   14   15 1
    31   14   45 1
    32   14   46 1
    33   15   16 1
    34   15   47 1
    35   15   48 1
    36   16   17 1
    37   16   49 1
    38   16   50 1
    39   17   18 1
    40   17   20 1
    41   17   51 1
    42   18   19 2
    43   20   21 1
    44   21   22 2
    45   21   23 2
    46   21   24 1
    47   24   25 1
    48   25   30 ar
    49   25   26 ar
    50   26   27 ar
    51   26   52 1
    52   27   28 ar
    53   27   53 1
    54   28   29 ar
    55   28   31 1
    56   29   30 ar
    57   30   54 1
    58   31   32 1
    59   32   55 1
    60   32   56 1
    61   32   57 1
@<TRIPOS>MOLECULE
CHEMBL370582__2
   58    62     0     0     0
SMALL
USER_CHARGES

@<TRIPOS>ATOM
      1 C1         -0.0173    1.4248    0.0099 C.3       1 <0>         0.0260
      2 O1          0.0021   -0.0041    0.0020 O.3       1 <0>        -0.3157
      3 C2         -1.2003   -0.6375    0.0101 C.ar      1 <0>         0.1397
      4 C3         -2.3735    0.1033    0.0196 C.ar      1 <0>        -0.2121
      5 C4         -3.5992   -0.5386    0.0292 C.ar      1 <0>        -0.0726
      6 C5         -3.6465   -1.9147    0.0283 C.ar      1 <0>        -0.1370
      7 C6         -2.4751   -2.6576    0.0170 C.ar      1 <0>        -0.0317
      8 C7         -1.2531   -2.0259    0.0031 C.ar      1 <0>        -0.1414
      9 C8         -2.6012   -4.1586    0.0137 C.3       1 <0>        -0.0935
     10 C9         -3.6474   -4.5821   -1.0121 C.3       1 <0>         0.1195
     11 N1         -4.8768   -3.7804   -0.9052 N.am      1 <0>        -0.5938
     12 C10        -4.9506   -2.6702    0.0400 C.3       1 <0>         0.1891
     13 C11        -6.0994   -1.7180   -0.2591 C.3       1 <0>         0.1480
     14 C12        -5.7595   -0.7947   -1.4255 C.3       1 <0>        -0.1665
     15 C13        -5.6541   -1.5863   -2.7283 C.3       1 <0>        -0.1222
     16 C14        -6.9626   -2.3413   -2.9858 C.3       1 <0>        -0.1256
     17 C15        -7.1710   -3.3305   -1.8211 C.3       1 <0>         0.1437
     18 C16        -5.9048   -4.1380   -1.6945 C.2       1 <0>         0.5197
     19 O2         -5.8084   -5.1621   -2.3370 O.2       1 <0>        -0.5307
     20 N2         -7.2960   -2.5103   -0.5963 N.pl3     1 <0>        -1.0001
     21 S1         -8.6722   -2.4848    0.3244 S.o2      1 <0>         2.7822
     22 O3         -9.3543   -3.7050    0.0692 O.2       1 <0>        -0.9564
     23 O4         -8.2789   -2.0909    1.6319 O.2       1 <0>        -0.9578
     24 N3         -9.6338   -1.2726   -0.2659 N.pl3     1 <0>        -1.0552
     25 C17       -10.1609   -1.3645   -1.5594 C.ar      1 <0>         0.0489
     26 C18       -10.1198   -0.2673   -2.4180 C.ar      1 <0>        -0.0479
     27 C19       -10.6523   -0.4042   -3.6874 C.ar      1 <0>        -0.1708
     28 C20       -11.2063   -1.6215   -4.0618 C.ar      1 <0>         0.3159
     29 N4        -11.2290   -2.6417   -3.2216 N.ar      1 <0>        -0.5128
     30 C21       -10.7255   -2.5501   -2.0052 C.ar      1 <0>         0.1170
     31 O5        -11.7314   -1.7652   -5.3058 O.3       1 <0>        -0.3055
     32 C22       -12.2867   -3.0409   -5.6321 C.3       1 <0>         0.0374
     33 H1          1.0053    1.8021    0.0021 H         1 <0>         0.1022
     34 H2         -0.5445    1.7859   -0.8732 H         1 <0>         0.0569
     35 H3         -0.5275    1.7763    0.9067 H         1 <0>         0.0577
     36 H4         -2.3299    1.1824    0.0198 H         1 <0>         0.1325
     37 H5         -4.5134    0.0363    0.0377 H         1 <0>         0.1483
     38 H6         -0.3414   -2.6049   -0.0089 H         1 <0>         0.1354
     39 H7         -1.6398   -4.6031   -0.2437 H         1 <0>         0.0974
     40 H8         -2.9047   -4.4995    1.0036 H         1 <0>         0.0903
     41 H9         -3.2319   -4.4627   -2.0127 H         1 <0>         0.0718
     42 H10        -3.8938   -5.6322   -0.8548 H         1 <0>         0.0833
     43 H11        -5.1027   -3.0780    1.0393 H         1 <0>         0.0898
     44 H12        -6.3049   -1.1119    0.6233 H         1 <0>         0.1185
     45 H13        -6.5402   -0.0406   -1.5258 H         1 <0>         0.0754
     46 H14        -4.8080   -0.3013   -1.2273 H         1 <0>         0.1170
     47 H15        -5.4628   -0.9010   -3.5541 H         1 <0>         0.0730
     48 H16        -4.8332   -2.2995   -2.6534 H         1 <0>         0.0716
     49 H17        -7.7937   -1.6371   -3.0255 H         1 <0>         0.0819
     50 H18        -6.8950   -2.8874   -3.9267 H         1 <0>         0.0845
     51 H19        -8.0412   -3.9668   -1.9820 H         1 <0>         0.1412
     52 H20        -9.8317   -0.4989    0.2847 H         1 <0>         0.4270
     53 H21        -9.6829    0.6677   -2.0997 H         1 <0>         0.1481
     54 H22       -10.6378    0.4254   -4.3787 H         1 <0>         0.1487
     55 H23       -10.7575   -3.4066   -1.3480 H         1 <0>         0.1876
     56 H24       -12.6704   -3.0199   -6.6521 H         1 <0>         0.0986
     57 H25       -11.5139   -3.8052   -5.5503 H         1 <0>         0.0623
     58 H26       -13.0993   -3.2705   -4.9429 H         1 <0>         0.0613
@<TRIPOS>BOND
     1    1    2 1
     2    1   33 1
     3    1   34 1
     4    1   35 1
     5    2    3 1
     6    3    8 ar
     7    3    4 ar
     8    4    5 ar
     9    4   36 1
    10    5    6 ar
    11    5   37 1
    12    6   12 1
    13    6    7 ar
    14    7    8 ar
    15    7    9 1
    16    8   38 1
    17    9   10 1
    18    9   39 1
    19    9   40 1
    20   10   11 1
    21   10   41 1
    22   10   42 1
    23   11   18 am
    24   11   12 1
    25   12   13 1
    26   12   43 1
    27   13   20 1
    28   13   14 1
    29   13   44 1
    30   14   15 1
    31   14   45 1
    32   14   46 1
    33   15   16 1
    34   15   47 1
    35   15   48 1
    36   16   17 1
    37   16   49 1
    38   16   50 1
    39   17   18 1
    40   17   20 1
    41   17   51 1
    42   18   19 2
    43   20   21 1
    44   21   22 2
    45   21   23 2
    46   21   24 1
    47   24   25 1
    48   24   52 1
    49   25   30 ar
    50   25   26 ar
    51   26   27 ar
    52   26   53 1
    53   27   28 ar
    54   27   54 1
    55   28   29 ar
    56   28   31 1
    57   29   30 ar
    58   30   55 1
    59   31   32 1
    60   32   56 1
    61   32   57 1
    62   32   58 1
@<TRIPOS>MOLECULE
CHEMBL370582__3
   57    61     0     0     0
SMALL
USER_CHARGES

@<TRIPOS>ATOM
      1 C1         -0.0173    1.4248    0.0099 C.3       1 <0>         0.0270
      2 O1          0.0021   -0.0041    0.0020 O.3       1 <0>        -0.3190
      3 C2          0.6058   -0.6071   -1.0557 C.ar      1 <0>         0.1311
      4 C3          1.1723    0.1628   -2.0614 C.ar      1 <0>        -0.2123
      5 C4          1.7865   -0.4482   -3.1403 C.ar      1 <0>        -0.0683
      6 C5          1.8323   -1.8226   -3.2084 C.ar      1 <0>        -0.1262
      7 C6          1.2683   -2.5947   -2.2033 C.ar      1 <0>        -0.0360
      8 C7          0.6598   -1.9938   -1.1257 C.ar      1 <0>        -0.1447
      9 C8          1.3576   -4.0920   -2.3409 C.3       1 <0>        -0.0910
     10 C9          2.7754   -4.4855   -2.7423 C.3       1 <0>         0.1198
     11 N1          3.2847   -3.6536   -3.8441 N.am      1 <0>        -0.5952
     12 C10         2.4857   -2.5451   -4.3584 C.3       1 <0>         0.1849
     13 C11         3.3040   -1.5634   -5.1845 C.3       1 <0>         0.1552
     14 C12         4.1299   -0.6448   -4.2886 C.3       1 <0>        -0.1637
     15 C13         5.2178   -1.4343   -3.5618 C.3       1 <0>        -0.1181
     16 C14         6.1065   -2.1553   -4.5811 C.3       1 <0>        -0.1247
     17 C15         5.2174   -3.1430   -5.3636 C.3       1 <0>         0.1506
     18 C16         4.4876   -3.9825   -4.3468 C.2       1 <0>         0.5221
     19 O2          5.0118   -5.0064   -3.9625 O.2       1 <0>        -0.5463
     20 N2          4.2063   -2.3243   -6.0678 N.pl3     1 <0>        -0.9837
     21 S1          4.0963   -2.2674   -7.7191 S.o2      1 <0>         2.7114
     22 O3          4.6772   -3.4692   -8.2065 O.2       1 <0>        -1.0409
     23 O4          2.7613   -1.8881   -8.0244 O.2       1 <0>        -1.0427
     24 N3          5.0691   -1.0294   -8.2323 N.2       1 <0>        -1.0964
     25 C17         5.1756   -0.7431   -9.5984 C.ar      1 <0>         0.2131
     26 C18         5.9963    0.2931  -10.0406 C.ar      1 <0>        -0.1142
     27 C19         6.0709    0.5397  -11.3998 C.ar      1 <0>        -0.1382
     28 C20         5.3311   -0.2476  -12.2726 C.ar      1 <0>         0.2041
     29 N4          4.5622   -1.2223  -11.8185 N.ar      1 <0>        -0.4954
     30 C21         4.4704   -1.4904  -10.5297 C.ar      1 <0>        -0.0175
     31 O5          5.3980   -0.0130  -13.6083 O.3       1 <0>        -0.3236
     32 C22         4.6143   -0.8559  -14.4552 C.3       1 <0>         0.0476
     33 H1          1.0053    1.8021    0.0021 H         1 <0>         0.0561
     34 H2         -0.5445    1.7859   -0.8732 H         1 <0>         0.0566
     35 H3         -0.5275    1.7763    0.9067 H         1 <0>         0.0984
     36 H4          1.1336    1.2405   -2.0022 H         1 <0>         0.1307
     37 H5          2.2270    0.1495   -3.9246 H         1 <0>         0.1529
     38 H6          0.2237   -2.5954   -0.3419 H         1 <0>         0.1317
     39 H7          1.1070   -4.5595   -1.3886 H         1 <0>         0.0930
     40 H8          0.6573   -4.4286   -3.1053 H         1 <0>         0.0881
     41 H9          3.4324   -4.3731   -1.8799 H         1 <0>         0.0678
     42 H10         2.7787   -5.5296   -3.0553 H         1 <0>         0.0786
     43 H11         1.7026   -2.9525   -4.9979 H         1 <0>         0.0851
     44 H12         2.6330   -0.9554   -5.7914 H         1 <0>         0.1133
     45 H13         4.5951    0.1289   -4.8993 H         1 <0>         0.0820
     46 H14         3.4751   -0.1761   -3.5540 H         1 <0>         0.1031
     47 H15         5.8267   -0.7511   -2.9696 H         1 <0>         0.0650
     48 H16         4.7538   -2.1681   -2.9027 H         1 <0>         0.0627
     49 H17         6.5452   -1.4303   -5.2667 H         1 <0>         0.0936
     50 H18         6.8960   -2.6996   -4.0631 H         1 <0>         0.0740
     51 H19         5.8015   -3.7566   -6.0494 H         1 <0>         0.1374
     52 H20         6.5602    0.8896   -9.3387 H         1 <0>         0.1314
     53 H21         6.6965    1.3348  -11.7775 H         1 <0>         0.1250
     54 H22         3.8356   -2.2980  -10.1961 H         1 <0>         0.1260
     55 H23         4.9249   -1.8925  -14.3240 H         1 <0>         0.0486
     56 H24         3.5611   -0.7563  -14.1927 H         1 <0>         0.0485
     57 H25         4.7591   -0.5621  -15.4948 H         1 <0>         0.0815
@<TRIPOS>BOND
     1    1    2 1
     2    1   33 1
     3    1   34 1
     4    1   35 1
     5    2    3 1
     6    3    8 ar
     7    3    4 ar
     8    4    5 ar
     9    4   36 1
    10    5    6 ar
    11    5   37 1
    12    6   12 1
    13    6    7 ar
    14    7    8 ar
    15    7    9 1
    16    8   38 1
    17    9   10 1
    18    9   39 1
    19    9   40 1
    20   10   11 1
    21   10   41 1
    22   10   42 1
    23   11   18 am
    24   11   12 1
    25   12   13 1
    26   12   43 1
    27   13   20 1
    28   13   14 1
    29   13   44 1
    30   14   15 1
    31   14   45 1
    32   14   46 1
    33   15   16 1
    34   15   47 1
    35   15   48 1
    36   16   17 1
    37   16   49 1
    38   16   50 1
    39   17   18 1
    40   17   20 1
    41   17   51 1
    42   18   19 2
    43   20   21 1
    44   21   22 2
    45   21   23 2
    46   21   24 1
    47   24   25 1
    48   25   30 ar
    49   25   26 ar
    50   26   27 ar
    51   26   52 1
    52   27   28 ar
    53   27   53 1
    54   28   29 ar
    55   28   31 1
    56   29   30 ar
    57   30   54 1
    58   31   32 1
    59   32   55 1
    60   32   56 1
    61   32   57 1
@<TRIPOS>MOLECULE
CHEMBL370582__4
   58    62     0     0     0
SMALL
USER_CHARGES

@<TRIPOS>ATOM
      1 C1         -0.0173    1.4248    0.0099 C.3       1 <0>         0.0257
      2 O1          0.0021   -0.0041    0.0020 O.3       1 <0>        -0.3157
      3 C2         -1.2003   -0.6375    0.0101 C.ar      1 <0>         0.1405
      4 C3         -2.3736    0.1031    0.0195 C.ar      1 <0>        -0.2119
      5 C4         -3.5994   -0.5387    0.0270 C.ar      1 <0>        -0.0723
      6 C5         -3.6470   -1.9147    0.0258 C.ar      1 <0>        -0.1395
      7 C6         -2.4754   -2.6575    0.0179 C.ar      1 <0>        -0.0321
      8 C7         -1.2533   -2.0260    0.0031 C.ar      1 <0>        -0.1423
      9 C8         -2.6018   -4.1586    0.0216 C.3       1 <0>        -0.0917
     10 C9         -3.6310   -4.5822    1.0647 C.3       1 <0>         0.1204
     11 N1         -4.8621   -3.7806    0.9779 N.am      1 <0>        -0.5918
     12 C10        -4.9508   -2.6707    0.0333 C.3       1 <0>         0.1890
     13 C11        -6.0960   -1.7197    0.3493 C.3       1 <0>         0.1459
     14 C12        -5.7403   -0.7956    1.5102 C.3       1 <0>        -0.1650
     15 C13        -5.6167   -1.5856    2.8123 C.3       1 <0>        -0.1247
     16 C14        -6.9204   -2.3423    3.0884 C.3       1 <0>        -0.1235
     17 C15        -7.1430   -3.3327    1.9273 C.3       1 <0>         0.1445
     18 C16        -5.8772   -4.1381    1.7839 C.2       1 <0>         0.5160
     19 O2         -5.7688   -5.1600    2.4280 O.2       1 <0>        -0.5299
     20 N2         -7.2865   -2.5136    0.7038 N.pl3     1 <0>        -0.9997
     21 S1         -8.6759   -2.4901   -0.1969 S.o2      1 <0>         2.7827
     22 O3         -9.7313   -2.8727    0.6744 O.2       1 <0>        -0.9563
     23 O4         -8.6808   -1.2574   -0.9039 O.2       1 <0>        -0.9579
     24 N3         -8.5430   -3.6870   -1.3335 N.pl3     1 <0>        -1.0566
     25 C17        -8.4875   -5.0277   -0.9349 C.ar      1 <0>         0.0452
     26 C18        -7.5492   -5.8926   -1.4956 C.ar      1 <0>        -0.0469
     27 C19        -7.5307   -7.2091   -1.0709 C.ar      1 <0>        -0.1688
     28 C20        -8.4410   -7.6226   -0.1068 C.ar      1 <0>         0.3202
     29 N4         -9.3178   -6.7753    0.4036 N.ar      1 <0>        -0.5126
     30 C21        -9.3614   -5.5112    0.0272 C.ar      1 <0>         0.1165
     31 O5         -8.4303   -8.9128    0.3162 O.3       1 <0>        -0.3050
     32 C22        -9.3906   -9.2778    1.3095 C.3       1 <0>         0.0380
     33 H1          1.0053    1.8021    0.0021 H         1 <0>         0.1024
     34 H2         -0.5445    1.7859   -0.8732 H         1 <0>         0.0579
     35 H3         -0.5275    1.7763    0.9067 H         1 <0>         0.0574
     36 H4         -2.3300    1.1822    0.0214 H         1 <0>         0.1329
     37 H5         -4.5135    0.0364    0.0342 H         1 <0>         0.1500
     38 H6         -0.3418   -2.6051   -0.0096 H         1 <0>         0.1350
     39 H7         -2.9221   -4.4983   -0.9633 H         1 <0>         0.0886
     40 H8         -1.6364   -4.6036    0.2625 H         1 <0>         0.0966
     41 H9         -3.8797   -5.6323    0.9116 H         1 <0>         0.0819
     42 H10        -3.1990   -4.4626    2.0583 H         1 <0>         0.0708
     43 H11        -5.1173   -3.0790   -0.9635 H         1 <0>         0.0845
     44 H12        -6.3151   -1.1140   -0.5301 H         1 <0>         0.1201
     45 H13        -4.7918   -0.3020    1.2985 H         1 <0>         0.1168
     46 H14        -6.5197   -0.0416    1.6206 H         1 <0>         0.0790
     47 H15        -4.7958   -2.2977    2.7272 H         1 <0>         0.0705
     48 H16        -5.4153   -0.8992    3.6346 H         1 <0>         0.0744
     49 H17        -6.8391   -2.8876    4.0286 H         1 <0>         0.0865
     50 H18        -7.7519   -1.6393    3.1388 H         1 <0>         0.0875
     51 H19        -8.0098   -3.9704    2.1006 H         1 <0>         0.1381
     52 H20        -8.5036   -3.4591   -2.2756 H         1 <0>         0.4266
     53 H21        -6.8535   -5.5434   -2.2442 H         1 <0>         0.1458
     54 H22        -6.8175   -7.9068   -1.4842 H         1 <0>         0.1478
     55 H23       -10.0887   -4.8468    0.4701 H         1 <0>         0.1873
     56 H24        -9.2738  -10.3328    1.5574 H         1 <0>         0.0983
     57 H25        -9.2350   -8.6750    2.2042 H         1 <0>         0.0623
     58 H26       -10.3954   -9.1042    0.9245 H         1 <0>         0.0607
@<TRIPOS>BOND
     1    1    2 1
     2    1   33 1
     3    1   34 1
     4    1   35 1
     5    2    3 1
     6    3    8 ar
     7    3    4 ar
     8    4    5 ar
     9    4   36 1
    10    5    6 ar
    11    5   37 1
    12    6   12 1
    13    6    7 ar
    14    7    8 ar
    15    7    9 1
    16    8   38 1
    17    9   10 1
    18    9   39 1
    19    9   40 1
    20   10   11 1
    21   10   41 1
    22   10   42 1
    23   11   18 am
    24   11   12 1
    25   12   13 1
    26   12   43 1
    27   13   20 1
    28   13   14 1
    29   13   44 1
    30   14   15 1
    31   14   45 1
    32   14   46 1
    33   15   16 1
    34   15   47 1
    35   15   48 1
    36   16   17 1
    37   16   49 1
    38   16   50 1
    39   17   18 1
    40   17   20 1
    41   17   51 1
    42   18   19 2
    43   20   21 1
    44   21   22 2
    45   21   23 2
    46   21   24 1
    47   24   25 1
    48   24   52 1
    49   25   30 ar
    50   25   26 ar
    51   26   27 ar
    52   26   53 1
    53   27   28 ar
    54   27   54 1
    55   28   29 ar
    56   28   31 1
    57   29   30 ar
    58   30   55 1
    59   31   32 1
    60   32   56 1
    61   32   57 1
    62   32   58 1
@<TRIPOS>MOLECULE
CHEMBL370582__5
   57    61     0     0     0
SMALL
USER_CHARGES

@<TRIPOS>ATOM
      1 C1         -0.0173    1.4248    0.0099 C.3       1 <0>         0.0273
      2 O1          0.0021   -0.0041    0.0020 O.3       1 <0>        -0.3190
      3 C2          0.6058   -0.6071   -1.0557 C.ar      1 <0>         0.1301
      4 C3          1.1724    0.1626   -2.0615 C.ar      1 <0>        -0.2127
      5 C4          1.7885   -0.4482   -3.1394 C.ar      1 <0>        -0.0717
      6 C5          1.8348   -1.8225   -3.2075 C.ar      1 <0>        -0.1257
      7 C6          1.2677   -2.5945   -2.2040 C.ar      1 <0>        -0.0346
      8 C7          0.6599   -1.9938   -1.1259 C.ar      1 <0>        -0.1441
      9 C8          1.3511   -4.0919   -2.3453 C.3       1 <0>        -0.0912
     10 C9          0.9686   -4.4932   -3.7663 C.3       1 <0>         0.1213
     11 N1          1.6465   -3.6607   -4.7728 N.am      1 <0>        -0.5907
     12 C10         2.4916   -2.5456   -4.3552 C.3       1 <0>         0.1857
     13 C11         2.7754   -1.5673   -5.4857 C.3       1 <0>         0.1537
     14 C12         1.5778   -0.6564   -5.7397 C.3       1 <0>        -0.1646
     15 C13         0.4007   -1.4539   -6.2994 C.3       1 <0>        -0.1207
     16 C14         0.8249   -2.1785   -7.5814 C.3       1 <0>        -0.1241
     17 C15         1.9571   -3.1590   -7.2135 C.3       1 <0>         0.1525
     18 C16         1.4613   -3.9954   -6.0619 C.2       1 <0>         0.5253
     19 O2          0.8652   -5.0220   -6.3105 O.2       1 <0>        -0.5482
     20 N2          3.0757   -2.3323   -6.7096 N.pl3     1 <0>        -0.9836
     21 S1          4.5497   -2.2707   -7.4618 S.o2      1 <0>         2.7120
     22 O3          4.3285   -2.6299   -8.8188 O.2       1 <0>        -1.0402
     23 O4          5.1452   -1.0359   -7.0880 O.2       1 <0>        -1.0420
     24 N3          5.4863   -3.4667   -6.8024 N.2       1 <0>        -1.0993
     25 C17         6.7995   -3.6540   -7.2495 C.ar      1 <0>         0.2140
     26 C18         7.5937   -4.6616   -6.7048 C.ar      1 <0>        -0.1140
     27 C19         8.8852   -4.8101   -7.1778 C.ar      1 <0>        -0.1377
     28 C20         9.3446   -3.9566   -8.1726 C.ar      1 <0>         0.2041
     29 N4          8.5640   -3.0111   -8.6666 N.ar      1 <0>        -0.4952
     30 C21         7.3251   -2.8432   -8.2443 C.ar      1 <0>        -0.0179
     31 O5         10.6108   -4.0949   -8.6430 O.3       1 <0>        -0.3235
     32 C22        11.0255   -3.1874   -9.6660 C.3       1 <0>         0.0477
     33 H1          1.0053    1.8021    0.0021 H         1 <0>         0.0564
     34 H2         -0.5445    1.7859   -0.8732 H         1 <0>         0.0554
     35 H3         -0.5275    1.7763    0.9067 H         1 <0>         0.0982
     36 H4          1.1322    1.2403   -2.0032 H         1 <0>         0.1296
     37 H5          2.2301    0.1497   -3.9230 H         1 <0>         0.1514
     38 H6          0.2245   -2.5956   -0.3419 H         1 <0>         0.1317
     39 H7          2.3694   -4.4201   -2.1371 H         1 <0>         0.0904
     40 H8          0.6669   -4.5619   -1.6388 H         1 <0>         0.0921
     41 H9          1.2419   -5.5362   -3.9262 H         1 <0>         0.0795
     42 H10        -0.1096   -4.3880   -3.8867 H         1 <0>         0.0658
     43 H11         3.4445   -2.9461   -4.0092 H         1 <0>         0.0929
     44 H12         3.6370   -0.9532   -5.2237 H         1 <0>         0.1143
     45 H13         1.2795   -0.1861   -4.8027 H         1 <0>         0.1076
     46 H14         1.8600    0.1165   -6.4546 H         1 <0>         0.0731
     47 H15         0.0752   -2.1860   -5.5604 H         1 <0>         0.0675
     48 H16        -0.4228   -0.7756   -6.5225 H         1 <0>         0.0653
     49 H17        -0.0216   -2.7290   -7.9920 H         1 <0>         0.0781
     50 H18         1.1858   -1.4551   -8.3125 H         1 <0>         0.0817
     51 H19         2.2501   -3.7754   -8.0633 H         1 <0>         0.1361
     52 H20         7.2101   -5.3107   -5.9316 H         1 <0>         0.1309
     53 H21         9.5285   -5.5801   -6.7782 H         1 <0>         0.1250
     54 H22         6.7151   -2.0629   -8.6750 H         1 <0>         0.1262
     55 H23        10.3766   -3.2981  -10.5348 H         1 <0>         0.0486
     56 H24        10.9617   -2.1653   -9.2927 H         1 <0>         0.0484
     57 H25        12.0545   -3.4067   -9.9508 H         1 <0>         0.0814
@<TRIPOS>BOND
     1    1    2 1
     2    1   33 1
     3    1   34 1
     4    1   35 1
     5    2    3 1
     6    3    8 ar
     7    3    4 ar
     8    4    5 ar
     9    4   36 1
    10    5    6 ar
    11    5   37 1
    12    6   12 1
    13    6    7 ar
    14    7    8 ar
    15    7    9 1
    16    8   38 1
    17    9   10 1
    18    9   39 1
    19    9   40 1
    20   10   11 1
    21   10   41 1
    22   10   42 1
    23   11   18 am
    24   11   12 1
    25   12   13 1
    26   12   43 1
    27   13   20 1
    28   13   14 1
    29   13   44 1
    30   14   15 1
    31   14   45 1
    32   14   46 1
    33   15   16 1
    34   15   47 1
    35   15   48 1
    36   16   17 1
    37   16   49 1
    38   16   50 1
    39   17   18 1
    40   17   20 1
    41   17   51 1
    42   18   19 2
    43   20   21 1
    44   21   22 2
    45   21   23 2
    46   21   24 1
    47   24   25 1
    48   25   30 ar
    49   25   26 ar
    50   26   27 ar
    51   26   52 1
    52   27   28 ar
    53   27   53 1
    54   28   29 ar
    55   28   31 1
    56   29   30 ar
    57   30   54 1
    58   31   32 1
    59   32   55 1
    60   32   56 1
    61   32   57 1
@<TRIPOS>MOLECULE
CHEMBL370582__6
   58    62     0     0     0
SMALL
USER_CHARGES

@<TRIPOS>ATOM
      1 C1         -0.0173    1.4248    0.0099 C.3       1 <0>         0.0260
      2 O1          0.0021   -0.0041    0.0020 O.3       1 <0>        -0.3165
      3 C2         -1.2003   -0.6375    0.0101 C.ar      1 <0>         0.1367
      4 C3         -2.3757    0.0999    0.0195 C.ar      1 <0>        -0.2015
      5 C4         -3.5904   -0.5527    0.0225 C.ar      1 <0>        -0.0633
      6 C5         -3.6461   -1.9393    0.0200 C.ar      1 <0>        -0.1415
      7 C6         -2.4805   -2.6764    0.0198 C.ar      1 <0>        -0.0244
      8 C7         -1.2569   -2.0204    0.0032 C.ar      1 <0>        -0.1539
      9 C8         -2.4690   -4.1819    0.0470 C.3       1 <0>        -0.1008
     10 C9         -3.8120   -4.7525   -0.4065 C.3       1 <0>         0.1052
     11 N1         -4.8754   -4.0147    0.3082 N.am      1 <0>        -0.5933
     12 C10        -4.9990   -2.5983    0.0093 C.3       1 <0>         0.1899
     13 C11        -5.9770   -1.8534    0.9000 C.3       1 <0>         0.1439
     14 C12        -7.3520   -1.8055    0.2203 C.3       1 <0>        -0.1308
     15 C13        -7.8678   -3.2340    0.0328 C.3       1 <0>        -0.1252
     16 C14        -7.9921   -3.9225    1.3933 C.3       1 <0>        -0.1236
     17 C15        -6.6193   -3.9566    2.0744 C.3       1 <0>         0.1405
     18 C16        -5.6448   -4.6834    1.1789 C.2       1 <0>         0.5255
     19 O2         -5.5570   -5.8910    1.2481 O.2       1 <0>        -0.5297
     20 N2         -6.1288   -2.5649    2.1817 N.pl3     1 <0>        -0.9965
     21 S1         -5.7765   -1.8575    3.6370 S.o2      1 <0>         2.7802
     22 O3         -5.4911   -2.9139    4.5435 O.2       1 <0>        -0.9582
     23 O4         -4.8506   -0.8138    3.3676 O.2       1 <0>        -0.9528
     24 N3         -7.1635   -1.1319    4.1773 N.pl3     1 <0>        -1.0565
     25 C17        -8.2793   -1.9112    4.5048 C.ar      1 <0>         0.0490
     26 C18        -9.5509   -1.5413    4.0701 C.ar      1 <0>        -0.0481
     27 C19       -10.6242   -2.3420    4.4173 C.ar      1 <0>        -0.1706
     28 C20       -10.4011   -3.4798    5.1820 C.ar      1 <0>         0.3156
     29 N4         -9.1814   -3.8007    5.5777 N.ar      1 <0>        -0.5128
     30 C21        -8.1330   -3.0644    5.2610 C.ar      1 <0>         0.1161
     31 O5        -11.4485   -4.2717    5.5276 O.3       1 <0>        -0.3054
     32 C22       -11.1557   -5.4278    6.3149 C.3       1 <0>         0.0373
     33 H1          1.0053    1.8021    0.0021 H         1 <0>         0.1016
     34 H2         -0.5445    1.7859   -0.8732 H         1 <0>         0.0567
     35 H3         -0.5275    1.7763    0.9067 H         1 <0>         0.0574
     36 H4         -2.3394    1.1792    0.0249 H         1 <0>         0.1322
     37 H5         -4.5060    0.0200    0.0270 H         1 <0>         0.1283
     38 H6         -0.3418   -2.5939   -0.0103 H         1 <0>         0.1323
     39 H7         -1.6841   -4.5453   -0.6163 H         1 <0>         0.0935
     40 H8         -2.2620   -4.5194    1.0625 H         1 <0>         0.0852
     41 H9         -3.9269   -4.6174   -1.4820 H         1 <0>         0.0802
     42 H10        -3.8663   -5.8124   -0.1582 H         1 <0>         0.1078
     43 H11        -5.3824   -2.5191   -1.0080 H         1 <0>         0.0916
     44 H12        -5.6107   -0.8431    1.0824 H         1 <0>         0.1222
     45 H13        -8.0480   -1.2457    0.8450 H         1 <0>         0.0798
     46 H14        -7.2614   -1.3202   -0.7515 H         1 <0>         0.0858
     47 H15        -8.8448   -3.2061   -0.4498 H         1 <0>         0.0779
     48 H16        -7.1712   -3.7916   -0.5933 H         1 <0>         0.0691
     49 H17        -8.6939   -3.3696    2.0177 H         1 <0>         0.0810
     50 H18        -8.3540   -4.9411    1.2536 H         1 <0>         0.0871
     51 H19        -6.6819   -4.4359    3.0513 H         1 <0>         0.1368
     52 H20        -7.2029   -0.1668    4.2668 H         1 <0>         0.4265
     53 H21        -9.6948   -0.6506    3.4766 H         1 <0>         0.1484
     54 H22       -11.6235   -2.0854    4.0980 H         1 <0>         0.1491
     55 H23        -7.1507   -3.3608    5.5983 H         1 <0>         0.1870
     56 H24       -12.0782   -5.9708    6.5202 H         1 <0>         0.0987
     57 H25       -10.4674   -6.0737    5.7698 H         1 <0>         0.0623
     58 H26       -10.6980   -5.1206    7.2552 H         1 <0>         0.0612
@<TRIPOS>BOND
     1    1    2 1
     2    1   33 1
     3    1   34 1
     4    1   35 1
     5    2    3 1
     6    3    8 ar
     7    3    4 ar
     8    4    5 ar
     9    4   36 1
    10    5    6 ar
    11    5   37 1
    12    6   12 1
    13    6    7 ar
    14    7    8 ar
    15    7    9 1
    16    8   38 1
    17    9   10 1
    18    9   39 1
    19    9   40 1
    20   10   11 1
    21   10   41 1
    22   10   42 1
    23   11   18 am
    24   11   12 1
    25   12   13 1
    26   12   43 1
    27   13   20 1
    28   13   14 1
    29   13   44 1
    30   14   15 1
    31   14   45 1
    32   14   46 1
    33   15   16 1
    34   15   47 1
    35   15   48 1
    36   16   17 1
    37   16   49 1
    38   16   50 1
    39   17   18 1
    40   17   20 1
    41   17   51 1
    42   18   19 2
    43   20   21 1
    44   21   22 2
    45   21   23 2
    46   21   24 1
    47   24   25 1
    48   24   52 1
    49   25   30 ar
    50   25   26 ar
    51   26   27 ar
    52   26   53 1
    53   27   28 ar
    54   27   54 1
    55   28   29 ar
    56   28   31 1
    57   29   30 ar
    58   30   55 1
    59   31   32 1
    60   32   56 1
    61   32   57 1
    62   32   58 1
@<TRIPOS>MOLECULE
CHEMBL370582__7
   57    61     0     0     0
SMALL
USER_CHARGES

@<TRIPOS>ATOM
      1 C1         -0.0173    1.4248    0.0099 C.3       1 <0>         0.0270
      2 O1          0.0021   -0.0041    0.0020 O.3       1 <0>        -0.3197
      3 C2          0.6058   -0.6071   -1.0557 C.ar      1 <0>         0.1292
      4 C3          1.1735    0.1595   -2.0634 C.ar      1 <0>        -0.2003
      5 C4          1.7882   -0.4624   -3.1296 C.ar      1 <0>        -0.0562
      6 C5          1.8397   -1.8472   -3.2043 C.ar      1 <0>        -0.1302
      7 C6          1.2689   -2.6133   -2.2098 C.ar      1 <0>        -0.0293
      8 C7          0.6616   -1.9882   -1.1289 C.ar      1 <0>        -0.1564
      9 C8          1.2631   -4.1187   -2.2435 C.3       1 <0>        -0.0985
     10 C9          2.3358   -4.6538   -3.1910 C.3       1 <0>         0.1050
     11 N1          2.2368   -3.8920   -4.4543 N.am      1 <0>        -0.5939
     12 C10         2.5354   -2.4720   -4.3835 C.3       1 <0>         0.1881
     13 C11         2.2411   -1.7059   -5.6607 C.3       1 <0>         0.1504
     14 C12         3.5161   -1.6211   -6.5104 C.3       1 <0>        -0.1308
     15 C13         3.9586   -3.0356   -6.8919 C.3       1 <0>        -0.1203
     16 C14         2.8530   -3.7254   -7.6934 C.3       1 <0>        -0.1227
     17 C15         1.5778   -3.7964   -6.8460 C.3       1 <0>         0.1472
     18 C16         1.8776   -4.5443   -5.5691 C.2       1 <0>         0.5271
     19 O2          1.7926   -5.7540   -5.5518 O.2       1 <0>        -0.5457
     20 N2          1.2180   -2.4178   -6.4472 N.pl3     1 <0>        -0.9806
     21 S1         -0.2294   -1.7245   -6.8555 S.o2      1 <0>         2.7123
     22 O3         -1.1407   -2.7909   -7.0828 O.2       1 <0>        -1.0435
     23 O4         -0.4751   -0.7035   -5.8983 O.2       1 <0>        -1.0374
     24 N3         -0.0155   -0.9663   -8.3121 N.2       1 <0>        -1.0989
     25 C17        -1.0827   -0.2863   -8.9106 C.ar      1 <0>         0.2139
     26 C18        -0.9141    0.3501  -10.1392 C.ar      1 <0>        -0.1148
     27 C19        -1.9968    1.0094  -10.6932 C.ar      1 <0>        -0.1381
     28 C20        -3.2072    1.0154  -10.0121 C.ar      1 <0>         0.2034
     29 N4         -3.3316    0.4016   -8.8480 N.ar      1 <0>        -0.4953
     30 C21        -2.3229   -0.2421   -8.2917 C.ar      1 <0>        -0.0176
     31 O5         -4.2753    1.6600  -10.5482 O.3       1 <0>        -0.3236
     32 C22        -5.4927    1.6309   -9.8005 C.3       1 <0>         0.0477
     33 H1          1.0053    1.8021    0.0021 H         1 <0>         0.0546
     34 H2         -0.5445    1.7859   -0.8732 H         1 <0>         0.0577
     35 H3         -0.5275    1.7763    0.9067 H         1 <0>         0.0977
     36 H4          1.1339    1.2376   -2.0131 H         1 <0>         0.1300
     37 H5          2.2329    0.1331   -3.9132 H         1 <0>         0.1306
     38 H6          0.2250   -2.5844   -0.3414 H         1 <0>         0.1284
     39 H7          1.4509   -4.4993   -1.2396 H         1 <0>         0.0885
     40 H8          0.2854   -4.4648   -2.5787 H         1 <0>         0.0833
     41 H9          3.3226   -4.5121   -2.7501 H         1 <0>         0.0754
     42 H10         2.1644   -5.7129   -3.3833 H         1 <0>         0.1041
     43 H11         3.6067   -2.3796   -4.2053 H         1 <0>         0.0843
     44 H12         1.8843   -0.7058   -5.4146 H         1 <0>         0.1173
     45 H13         3.3142   -1.0462   -7.4142 H         1 <0>         0.0876
     46 H14         4.3049   -1.1348   -5.9364 H         1 <0>         0.0726
     47 H15         4.8643   -2.9815   -7.4959 H         1 <0>         0.0696
     48 H16         4.1613   -3.6083   -5.9869 H         1 <0>         0.0601
     49 H17         2.6544   -3.1573   -8.6022 H         1 <0>         0.0912
     50 H18         3.1708   -4.7341   -7.9573 H         1 <0>         0.0761
     51 H19         0.7704   -4.2774   -7.3982 H         1 <0>         0.1336
     52 H20         0.0391    0.3293  -10.6463 H         1 <0>         0.1314
     53 H21        -1.9018    1.5135  -11.6436 H         1 <0>         0.1250
     54 H22        -2.4635   -0.7363   -7.3417 H         1 <0>         0.1254
     55 H23        -5.8117    0.5974   -9.6657 H         1 <0>         0.0485
     56 H24        -5.3316    2.0915   -8.8258 H         1 <0>         0.0482
     57 H25        -6.2635    2.1816  -10.3397 H         1 <0>         0.0815
@<TRIPOS>BOND
     1    1    2 1
     2    1   33 1
     3    1   34 1
     4    1   35 1
     5    2    3 1
     6    3    8 ar
     7    3    4 ar
     8    4    5 ar
     9    4   36 1
    10    5    6 ar
    11    5   37 1
    12    6   12 1
    13    6    7 ar
    14    7    8 ar
    15    7    9 1
    16    8   38 1
    17    9   10 1
    18    9   39 1
    19    9   40 1
    20   10   11 1
    21   10   41 1
    22   10   42 1
    23   11   18 am
    24   11   12 1
    25   12   13 1
    26   12   43 1
    27   13   20 1
    28   13   14 1
    29   13   44 1
    30   14   15 1
    31   14   45 1
    32   14   46 1
    33   15   16 1
    34   15   47 1
    35   15   48 1
    36   16   17 1
    37   16   49 1
    38   16   50 1
    39   17   18 1
    40   17   20 1
    41   17   51 1
    42   18   19 2
    43   20   21 1
    44   21   22 2
    45   21   23 2
    46   21   24 1
    47   24   25 1
    48   25   30 ar
    49   25   26 ar
    50   26   27 ar
    51   26   52 1
    52   27   28 ar
    53   27   53 1
    54   28   29 ar
    55   28   31 1
    56   29   30 ar
    57   30   54 1
    58   31   32 1
    59   32   55 1
    60   32   56 1
    61   32   57 1
@<TRIPOS>MOLECULE
CHEMBL300752
   75    78     0     0     0
SMALL
USER_CHARGES

@<TRIPOS>ATOM
      1 C1         -1.8097   -0.9958    3.5419 C.ar      1 <0>        -0.1247
      2 C2         -1.0459    0.0517    3.0620 C.ar      1 <0>        -0.1186
      3 C3          0.1588   -0.2024    2.4335 C.ar      1 <0>        -0.1180
      4 C4          0.6000   -1.5041    2.2854 C.ar      1 <0>        -0.0789
      5 C5         -0.1634   -2.5515    2.7661 C.ar      1 <0>        -0.1171
      6 C6         -1.3687   -2.2975    3.3933 C.ar      1 <0>        -0.1170
      7 C7          1.9129   -1.7812    1.5994 C.3       1 <0>        -0.0813
      8 C8          3.0383   -1.7886    2.6359 C.3       1 <0>        -0.1100
      9 C9          4.3712   -2.0699    1.9394 C.3       1 <0>        -0.1150
     10 C10         5.4966   -2.0773    2.9759 C.3       1 <0>         0.0934
     11 C11         6.8090   -2.4809    2.3009 C.3       1 <0>        -0.1392
     12 C12         7.9077   -2.6095    3.3579 C.3       1 <0>        -0.1091
     13 C13         9.2200   -3.0131    2.6829 C.3       1 <0>        -0.0814
     14 C14        10.3022   -3.1398    3.7240 C.ar      1 <0>        -0.0784
     15 C15        11.0733   -2.0417    4.0565 C.ar      1 <0>        -0.1188
     16 C16        12.0660   -2.1578    5.0115 C.ar      1 <0>        -0.1181
     17 C17        12.2872   -3.3719    5.6343 C.ar      1 <0>        -0.1262
     18 C18        11.5155   -4.4698    5.3025 C.ar      1 <0>        -0.1171
     19 C19        10.5200   -4.3526    4.3506 C.ar      1 <0>        -0.1167
     20 O1          5.6331   -0.7714    3.5401 O.3       1 <0>        -0.3460
     21 C20         6.0706   -0.6976    4.8069 C.2       1 <0>         0.4654
     22 O2          6.3291   -1.7082    5.4166 O.2       1 <0>        -0.4598
     23 C21         6.2393    0.6457    5.4687 C.3       1 <0>         0.1556
     24 C22         7.7126    0.8583    5.8310 C.3       1 <0>        -0.1254
     25 C23         7.8560    2.1586    6.6252 C.3       1 <0>        -0.1169
     26 C24         7.0493    2.0580    7.9219 C.3       1 <0>        -0.1388
     27 C25         5.5686    1.8590    7.5833 C.3       1 <0>         0.1072
     28 N1          5.4382    0.6926    6.6994 N.am      1 <0>        -0.5920
     29 C26         4.5996   -0.3152    7.0117 C.2       1 <0>         0.4888
     30 O3          4.5615   -1.3101    6.3176 O.2       1 <0>        -0.4758
     31 C27         3.7175   -0.2078    8.2114 C.2       1 <0>         0.4013
     32 O4          4.1382   -0.5260    9.3043 O.2       1 <0>        -0.4137
     33 C28         2.3357    0.2848    8.0684 C.ar      1 <0>        -0.1703
     34 C29         1.8795    0.7498    6.8302 C.ar      1 <0>        -0.0600
     35 C30         0.5857    1.2089    6.7047 C.ar      1 <0>        -0.1251
     36 C31        -0.2614    1.2107    7.7997 C.ar      1 <0>        -0.0767
     37 C32         0.1825    0.7522    9.0284 C.ar      1 <0>        -0.1309
     38 C33         1.4716    0.2845    9.1689 C.ar      1 <0>        -0.0523
     39 H1         -2.7488   -0.7969    4.0368 H         1 <0>         0.1194
     40 H2         -1.3906    1.0687    3.1777 H         1 <0>         0.1199
     41 H3          0.7551    0.6159    2.0580 H         1 <0>         0.1195
     42 H4          0.1810   -3.5685    2.6498 H         1 <0>         0.1195
     43 H5         -1.9653   -3.1158    3.7685 H         1 <0>         0.1201
     44 H6          1.8671   -2.7520    1.1059 H         1 <0>         0.0717
     45 H7          2.1064   -1.0057    0.8584 H         1 <0>         0.0726
     46 H8          3.0840   -0.8178    3.1294 H         1 <0>         0.0664
     47 H9          2.8447   -2.5641    3.3770 H         1 <0>         0.0635
     48 H10         4.3254   -3.0407    1.4459 H         1 <0>         0.0829
     49 H11         4.5648   -1.2944    1.1984 H         1 <0>         0.0749
     50 H12         5.2593   -2.7909    3.7649 H         1 <0>         0.0873
     51 H13         6.6781   -3.4374    1.7948 H         1 <0>         0.0799
     52 H14         7.0922   -1.7205    1.5731 H         1 <0>         0.0726
     53 H15         8.0386   -1.6530    3.8641 H         1 <0>         0.0580
     54 H16         7.6245   -3.3699    4.0857 H         1 <0>         0.0717
     55 H17         9.0891   -3.9696    2.1768 H         1 <0>         0.0716
     56 H18         9.5032   -2.2527    1.9551 H         1 <0>         0.0705
     57 H19        10.9004   -1.0932    3.5699 H         1 <0>         0.1183
     58 H20        12.6689   -1.3001    5.2708 H         1 <0>         0.1204
     59 H21        13.0633   -3.4628    6.3800 H         1 <0>         0.1202
     60 H22        11.6887   -5.4184    5.7888 H         1 <0>         0.1208
     61 H23         9.9147   -5.2093    4.0940 H         1 <0>         0.1197
     62 H24         5.9110    1.4319    4.7888 H         1 <0>         0.1083
     63 H25         8.0628    0.0220    6.4360 H         1 <0>         0.0829
     64 H26         8.3060    0.9217    4.9189 H         1 <0>         0.0856
     65 H27         8.9066    2.3249    6.8631 H         1 <0>         0.0784
     66 H28         7.4827    2.9913    6.0290 H         1 <0>         0.0720
     67 H29         7.4058    1.2104    8.5072 H         1 <0>         0.0739
     68 H30         7.1707    2.9753    8.4979 H         1 <0>         0.0860
     69 H31         5.0040    1.6879    8.4998 H         1 <0>         0.0857
     70 H32         5.1872    2.7457    7.0768 H         1 <0>         0.0844
     71 H33         2.5392    0.7493    5.9751 H         1 <0>         0.1253
     72 H34         0.2322    1.5685    5.7496 H         1 <0>         0.1320
     73 H35        -1.2738    1.5720    7.6951 H         1 <0>         0.1312
     74 H36        -0.4842    0.7572    9.8780 H         1 <0>         0.1340
     75 H37         1.8151   -0.0770   10.1269 H         1 <0>         0.1367
@<TRIPOS>BOND
     1    1    6 ar
     2    1    2 ar
     3    1   39 1
     4    2    3 ar
     5    2   40 1
     6    3    4 ar
     7    3   41 1
     8    4    5 ar
     9    4    7 1
    10    5    6 ar
    11    5   42 1
    12    6   43 1
    13    7    8 1
    14    7   44 1
    15    7   45 1
    16    8    9 1
    17    8   46 1
    18    8   47 1
    19    9   10 1
    20    9   48 1
    21    9   49 1
    22   10   11 1
    23   10   20 1
    24   10   50 1
    25   11   12 1
    26   11   51 1
    27   11   52 1
    28   12   13 1
    29   12   53 1
    30   12   54 1
    31   13   14 1
    32   13   55 1
    33   13   56 1
    34   14   19 ar
    35   14   15 ar
    36   15   16 ar
    37   15   57 1
    38   16   17 ar
    39   16   58 1
    40   17   18 ar
    41   17   59 1
    42   18   19 ar
    43   18   60 1
    44   19   61 1
    45   20   21 1
    46   21   22 2
    47   21   23 1
    48   23   28 1
    49   23   24 1
    50   23   62 1
    51   24   25 1
    52   24   63 1
    53   24   64 1
    54   25   26 1
    55   25   65 1
    56   25   66 1
    57   26   27 1
    58   26   67 1
    59   26   68 1
    60   27   28 1
    61   27   69 1
    62   27   70 1
    63   28   29 am
    64   29   30 2
    65   29   31 1
    66   31   32 2
    67   31   33 1
    68   33   38 ar
    69   33   34 ar
    70   34   35 ar
    71   34   71 1
    72   35   36 ar
    73   35   72 1
    74   36   37 ar
    75   36   73 1
    76   37   38 ar
    77   37   74 1
    78   38   75 1
@<TRIPOS>MOLECULE
CHEMBL300752__1
   75    78     0     0     0
SMALL
USER_CHARGES

@<TRIPOS>ATOM
      1 C1          1.8047    1.6459   -1.6696 C.ar      1 <0>        -0.1260
      2 C2          3.0459    2.1717   -1.3636 C.ar      1 <0>        -0.1182
      3 C3          4.0750    1.3341   -0.9761 C.ar      1 <0>        -0.1180
      4 C4          3.8627   -0.0294   -0.8940 C.ar      1 <0>        -0.0811
      5 C5          2.6212   -0.5552   -1.1990 C.ar      1 <0>        -0.1188
      6 C6          1.5925    0.2823   -1.5880 C.ar      1 <0>        -0.1181
      7 C7          4.9849   -0.9427   -0.4724 C.3       1 <0>        -0.0812
      8 C8          4.9649   -1.1065    1.0487 C.3       1 <0>        -0.1124
      9 C9          6.1042   -2.0337    1.4767 C.3       1 <0>        -0.1174
     10 C10         6.0843   -2.1976    2.9978 C.3       1 <0>         0.0961
     11 C11         7.1429   -3.2207    3.4144 C.3       1 <0>        -0.1387
     12 C12         7.0396   -3.4774    4.9192 C.3       1 <0>        -0.1310
     13 C13         8.0982   -4.5005    5.3358 C.3       1 <0>        -0.0785
     14 C14         7.9965   -4.7534    6.8180 C.ar      1 <0>        -0.0622
     15 C15         8.7226   -3.9783    7.7028 C.ar      1 <0>        -0.1096
     16 C16         8.6293   -4.2102    9.0624 C.ar      1 <0>        -0.1126
     17 C17         7.8096   -5.2170    9.5371 C.ar      1 <0>        -0.1294
     18 C18         7.0828   -5.9915    8.6523 C.ar      1 <0>        -0.1182
     19 C19         7.1728   -5.7567    7.2930 C.ar      1 <0>        -0.1192
     20 O1          6.3673   -0.9407    3.6160 O.3       1 <0>        -0.3437
     21 C20         5.8171   -0.7160    4.8196 C.2       1 <0>         0.4556
     22 O2          5.1185   -1.5586    5.3313 O.2       1 <0>        -0.4553
     23 C21         6.0709    0.5871    5.5327 C.3       1 <0>         0.1578
     24 C22         4.8590    1.5089    5.3647 C.3       1 <0>        -0.1229
     25 C23         5.0636    2.7720    6.2042 C.3       1 <0>        -0.1175
     26 C24         5.1796    2.3912    7.6819 C.3       1 <0>        -0.1393
     27 C25         6.3952    1.4794    7.8762 C.3       1 <0>         0.1101
     28 N1          6.2767    0.3328    6.9650 N.am      1 <0>        -0.5987
     29 C26         6.3553   -0.9281    7.4343 C.2       1 <0>         0.4743
     30 O3          6.4594   -1.8579    6.6612 O.2       1 <0>        -0.4444
     31 C27         6.3144   -1.1812    8.9050 C.2       1 <0>         0.4053
     32 O4          7.3342   -1.1195    9.5599 O.2       1 <0>        -0.4185
     33 C28         5.0354   -1.5061    9.5616 C.ar      1 <0>        -0.1673
     34 C29         3.8424   -1.4758    8.8313 C.ar      1 <0>        -0.0566
     35 C30         2.6503   -1.7808    9.4527 C.ar      1 <0>        -0.1323
     36 C31         2.6315   -2.1165   10.7957 C.ar      1 <0>        -0.0791
     37 C32         3.8077   -2.1487   11.5253 C.ar      1 <0>        -0.1339
     38 C33         5.0087   -1.8519   10.9171 C.ar      1 <0>        -0.0521
     39 H1          0.9994    2.3007   -1.9681 H         1 <0>         0.1205
     40 H2          3.2118    3.2370   -1.4278 H         1 <0>         0.1212
     41 H3          5.0450    1.7449   -0.7377 H         1 <0>         0.1209
     42 H4          2.4555   -1.6205   -1.1356 H         1 <0>         0.1201
     43 H5          0.6226   -0.1285   -1.8267 H         1 <0>         0.1210
     44 H6          4.8573   -1.9168   -0.9445 H         1 <0>         0.0723
     45 H7          5.9382   -0.5123   -0.7790 H         1 <0>         0.0736
     46 H8          5.0925   -0.1324    1.5208 H         1 <0>         0.0682
     47 H9          4.0116   -1.5368    1.3553 H         1 <0>         0.0620
     48 H10         5.9767   -3.0079    1.0046 H         1 <0>         0.0835
     49 H11         7.0576   -1.6034    1.1701 H         1 <0>         0.0760
     50 H12         5.1001   -2.5442    3.3130 H         1 <0>         0.0822
     51 H13         6.9791   -4.1534    2.8746 H         1 <0>         0.0727
     52 H14         8.1344   -2.8340    3.1790 H         1 <0>         0.0676
     53 H15         7.2035   -2.5447    5.4590 H         1 <0>         0.1180
     54 H16         6.0481   -3.8641    5.1546 H         1 <0>         0.0646
     55 H17         7.9344   -5.4332    4.7960 H         1 <0>         0.0624
     56 H18         9.0898   -4.1138    5.1004 H         1 <0>         0.0630
     57 H19         9.3630   -3.1917    7.3319 H         1 <0>         0.1114
     58 H20         9.1971   -3.6051    9.7536 H         1 <0>         0.1165
     59 H21         7.7373   -5.3987   10.5993 H         1 <0>         0.1157
     60 H22         6.4427   -6.7783    9.0232 H         1 <0>         0.1165
     61 H23         6.6021   -6.3594    6.6020 H         1 <0>         0.1154
     62 H24         6.9571    1.0654    5.1154 H         1 <0>         0.1085
     63 H25         4.7531    1.7830    4.3150 H         1 <0>         0.0880
     64 H26         3.9595    0.9918    5.6987 H         1 <0>         0.0785
     65 H27         5.9765    3.2755    5.8862 H         1 <0>         0.0722
     66 H28         4.2138    3.4407    6.0672 H         1 <0>         0.0778
     67 H29         5.3019    3.2932    8.2816 H         1 <0>         0.0845
     68 H30         4.2771    1.8658    7.9941 H         1 <0>         0.0724
     69 H31         7.3068    2.0327    7.6506 H         1 <0>         0.0826
     70 H32         6.4256    1.1255    8.9067 H         1 <0>         0.0845
     71 H33         3.8554   -1.2138    7.7837 H         1 <0>         0.1322
     72 H34         1.7285   -1.7575    8.8904 H         1 <0>         0.1302
     73 H35         1.6943   -2.3541   11.2769 H         1 <0>         0.1296
     74 H36         3.7848   -2.4112   12.5727 H         1 <0>         0.1319
     75 H37         5.9259   -1.8818   11.4864 H         1 <0>         0.1344
@<TRIPOS>BOND
     1    1    6 ar
     2    1    2 ar
     3    1   39 1
     4    2    3 ar
     5    2   40 1
     6    3    4 ar
     7    3   41 1
     8    4    5 ar
     9    4    7 1
    10    5    6 ar
    11    5   42 1
    12    6   43 1
    13    7    8 1
    14    7   44 1
    15    7   45 1
    16    8    9 1
    17    8   46 1
    18    8   47 1
    19    9   10 1
    20    9   48 1
    21    9   49 1
    22   10   11 1
    23   10   20 1
    24   10   50 1
    25   11   12 1
    26   11   51 1
    27   11   52 1
    28   12   13 1
    29   12   53 1
    30   12   54 1
    31   13   14 1
    32   13   55 1
    33   13   56 1
    34   14   19 ar
    35   14   15 ar
    36   15   16 ar
    37   15   57 1
    38   16   17 ar
    39   16   58 1
    40   17   18 ar
    41   17   59 1
    42   18   19 ar
    43   18   60 1
    44   19   61 1
    45   20   21 1
    46   21   22 2
    47   21   23 1
    48   23   28 1
    49   23   24 1
    50   23   62 1
    51   24   25 1
    52   24   63 1
    53   24   64 1
    54   25   26 1
    55   25   65 1
    56   25   66 1
    57   26   27 1
    58   26   67 1
    59   26   68 1
    60   27   28 1
    61   27   69 1
    62   27   70 1
    63   28   29 am
    64   29   30 2
    65   29   31 1
    66   31   32 2
    67   31   33 1
    68   33   38 ar
    69   33   34 ar
    70   34   35 ar
    71   34   71 1
    72   35   36 ar
    73   35   72 1
    74   36   37 ar
    75   36   73 1
    76   37   38 ar
    77   37   74 1
    78   38   75 1
@<TRIPOS>MOLECULE
CHEMBL300040
   68    70     0     0     0
SMALL
USER_CHARGES

@<TRIPOS>ATOM
      1 C1          1.7771    3.7767   -0.2789 C.3       1 <0>        -0.1557
      2 C2          1.4634    2.2932   -0.0745 C.3       1 <0>        -0.1081
      3 C3          2.0115    1.4887   -1.2549 C.3       1 <0>        -0.0876
      4 C4          1.3582    1.9744   -2.5504 C.3       1 <0>        -0.1480
      5 C5          3.5266    1.6820   -1.3442 C.3       1 <0>        -0.1449
      6 C6          1.7025    0.0275   -1.0537 C.2       1 <0>         0.3714
      7 O1          1.1054   -0.3332   -0.0677 O.2       1 <0>        -0.4079
      8 C7          2.1339   -0.9727   -2.0716 C.2       1 <0>         0.4730
      9 O2          2.4712   -0.6056   -3.1782 O.2       1 <0>        -0.4767
     10 N1          2.1493   -2.2846   -1.7630 N.am      1 <0>        -0.5800
     11 C8          1.6650   -2.7521   -0.4570 C.3       1 <0>         0.0615
     12 C9          2.7568   -3.6045    0.1973 C.3       1 <0>        -0.1382
     13 C10         3.1648   -4.7265   -0.7601 C.3       1 <0>        -0.1195
     14 C11         3.7310   -4.1210   -2.0466 C.3       1 <0>        -0.1230
     15 C12         2.6450   -3.2749   -2.7285 C.3       1 <0>         0.1497
     16 C13         3.2297   -2.5668   -3.9234 C.2       1 <0>         0.4750
     17 O3          4.1160   -1.7595   -3.7733 O.2       1 <0>        -0.4792
     18 O4          2.7658   -2.8331   -5.1546 O.3       1 <0>        -0.3528
     19 C14         3.3660   -2.1252   -6.2411 C.3       1 <0>         0.0741
     20 C15         2.7121   -2.5577   -7.5549 C.3       1 <0>        -0.1095
     21 C16         3.3547   -1.7998   -8.7183 C.3       1 <0>        -0.0038
     22 C17         4.8017   -2.2022   -8.8418 C.ar      1 <0>        -0.0749
     23 C18         5.7646   -1.2467   -9.1078 C.ar      1 <0>        -0.1124
     24 C19         7.0919   -1.6158   -9.2211 C.ar      1 <0>        -0.1160
     25 C20         7.4564   -2.9404   -9.0679 C.ar      1 <0>        -0.1217
     26 C21         6.4937   -3.8958   -8.8011 C.ar      1 <0>        -0.1172
     27 C22         5.1669   -3.5260   -8.6835 C.ar      1 <0>        -0.1155
     28 C23         2.6297   -2.1332   -9.9967 C.ar      1 <0>        -0.0719
     29 C24         2.4899   -3.4515  -10.3883 C.ar      1 <0>        -0.1103
     30 C25         1.8248   -3.7574  -11.5609 C.ar      1 <0>        -0.1179
     31 C26         1.2993   -2.7450  -12.3417 C.ar      1 <0>        -0.1214
     32 C27         1.4383   -1.4267  -11.9496 C.ar      1 <0>        -0.1177
     33 C28         2.0996   -1.1211  -10.7748 C.ar      1 <0>        -0.1132
     34 H1          2.8565    3.9144   -0.3424 H         1 <0>         0.0599
     35 H2          1.3117    4.1227   -1.2018 H         1 <0>         0.0602
     36 H3          1.3866    4.3498    0.5621 H         1 <0>         0.0585
     37 H4          1.9288    1.9472    0.8484 H         1 <0>         0.0690
     38 H5          0.3840    2.1555   -0.0110 H         1 <0>         0.0694
     39 H6          1.5817    3.0313   -2.6959 H         1 <0>         0.0741
     40 H7          1.7487    1.4013   -3.3913 H         1 <0>         0.0842
     41 H8          0.2788    1.8367   -2.4868 H         1 <0>         0.0556
     42 H9          3.9920    1.3360   -0.4212 H         1 <0>         0.0567
     43 H10         3.9171    1.1089   -2.1851 H         1 <0>         0.0753
     44 H11         3.7501    2.7389   -1.4897 H         1 <0>         0.0768
     45 H12         1.4411   -1.8949    0.1779 H         1 <0>         0.1439
     46 H13         0.7658   -3.3526   -0.5944 H         1 <0>         0.0768
     47 H14         3.6231   -2.9805    0.4167 H         1 <0>         0.0685
     48 H15         2.3754   -4.0366    1.1225 H         1 <0>         0.0836
     49 H16         3.9241   -5.3493   -0.2872 H         1 <0>         0.0766
     50 H17         2.2928   -5.3355   -0.9986 H         1 <0>         0.0709
     51 H18         4.5881   -3.4920   -1.8061 H         1 <0>         0.0813
     52 H19         4.0430   -4.9205   -2.7185 H         1 <0>         0.0854
     53 H20         1.8241   -3.9172   -3.0473 H         1 <0>         0.1084
     54 H21         3.2234   -1.0538   -6.0998 H         1 <0>         0.0706
     55 H22         4.4324   -2.3483   -6.2753 H         1 <0>         0.0683
     56 H23         2.8547   -3.6291   -7.6963 H         1 <0>         0.0787
     57 H24         1.6457   -2.3345   -7.5207 H         1 <0>         0.0808
     58 H25         3.2903   -0.7275   -8.5331 H         1 <0>         0.0908
     59 H26         5.4798   -0.2118   -9.2274 H         1 <0>         0.1213
     60 H27         7.8441   -0.8693   -9.4296 H         1 <0>         0.1222
     61 H28         8.4934   -3.2289   -9.1571 H         1 <0>         0.1211
     62 H29         6.7784   -4.9307   -8.6818 H         1 <0>         0.1217
     63 H30         4.4152   -4.2719   -8.4713 H         1 <0>         0.1216
     64 H31         2.9005   -4.2425   -9.7783 H         1 <0>         0.1208
     65 H32         1.7162   -4.7873  -11.8672 H         1 <0>         0.1219
     66 H33         0.7803   -2.9839  -13.2582 H         1 <0>         0.1213
     67 H34         1.0280   -0.6357  -12.5598 H         1 <0>         0.1224
     68 H35         2.2050   -0.0914  -10.4666 H         1 <0>         0.1218
@<TRIPOS>BOND
     1    1    2 1
     2    1   34 1
     3    1   35 1
     4    1   36 1
     5    2    3 1
     6    2   37 1
     7    2   38 1
     8    3    4 1
     9    3    5 1
    10    3    6 1
    11    4   39 1
    12    4   40 1
    13    4   41 1
    14    5   42 1
    15    5   43 1
    16    5   44 1
    17    6    7 2
    18    6    8 1
    19    8    9 2
    20    8   10 am
    21   10   15 1
    22   10   11 1
    23   11   12 1
    24   11   45 1
    25   11   46 1
    26   12   13 1
    27   12   47 1
    28   12   48 1
    29   13   14 1
    30   13   49 1
    31   13   50 1
    32   14   15 1
    33   14   51 1
    34   14   52 1
    35   15   16 1
    36   15   53 1
    37   16   17 2
    38   16   18 1
    39   18   19 1
    40   19   20 1
    41   19   54 1
    42   19   55 1
    43   20   21 1
    44   20   56 1
    45   20   57 1
    46   21   22 1
    47   21   28 1
    48   21   58 1
    49   22   27 ar
    50   22   23 ar
    51   23   24 ar
    52   23   59 1
    53   24   25 ar
    54   24   60 1
    55   25   26 ar
    56   25   61 1
    57   26   27 ar
    58   26   62 1
    59   27   63 1
    60   28   33 ar
    61   28   29 ar
    62   29   30 ar
    63   29   64 1
    64   30   31 ar
    65   30   65 1
    66   31   32 ar
    67   31   66 1
    68   32   33 ar
    69   32   67 1
    70   33   68 1
@<TRIPOS>MOLECULE
CHEMBL300040__1
   68    70     0     0     0
SMALL
USER_CHARGES

@<TRIPOS>ATOM
      1 C1          0.7667    1.4931    0.0950 C.3       1 <0>        -0.1555
      2 C2          0.6951   -0.0328    0.0100 C.3       1 <0>        -0.1080
      3 C3          1.0664   -0.4828   -1.4045 C.3       1 <0>        -0.0872
      4 C4          0.0878    0.1304   -2.4081 C.3       1 <0>        -0.1455
      5 C5          2.4879   -0.0199   -1.7302 C.3       1 <0>        -0.1469
      6 C6          0.9959   -1.9858   -1.4882 C.2       1 <0>         0.3687
      7 O1          0.6812   -2.6307   -0.5167 O.2       1 <0>        -0.4075
      8 C7          1.3148   -2.6767   -2.7703 C.2       1 <0>         0.4720
      9 O2          1.7698   -2.0465   -3.7024 O.2       1 <0>        -0.4739
     10 N1          1.0977   -4.0010   -2.8943 N.am      1 <0>        -0.5801
     11 C8          0.3499   -4.7365   -1.8654 C.3       1 <0>         0.0798
     12 C9         -0.7989   -5.4945   -2.5381 C.3       1 <0>        -0.1398
     13 C10        -0.2377   -6.3749   -3.6571 C.3       1 <0>        -0.1192
     14 C11         0.4415   -5.4947   -4.7088 C.3       1 <0>        -0.1254
     15 C12         1.5991   -4.7356   -4.0637 C.3       1 <0>         0.1511
     16 C13         2.1808   -3.7648   -5.0588 C.2       1 <0>         0.4759
     17 O3          1.4519   -3.0331   -5.6859 O.2       1 <0>        -0.4836
     18 O4          3.5086   -3.7129   -5.2485 O.3       1 <0>        -0.3538
     19 C14         3.9907   -2.7691   -6.2071 C.3       1 <0>         0.0727
     20 C15         5.5163   -2.8552   -6.2849 C.3       1 <0>        -0.1109
     21 C16         6.0324   -1.8447   -7.3113 C.3       1 <0>        -0.0036
     22 C17         5.7358   -0.4468   -6.8329 C.ar      1 <0>        -0.0754
     23 C18         5.4405    0.5482   -7.7460 C.ar      1 <0>        -0.1123
     24 C19         5.1685    1.8305   -7.3071 C.ar      1 <0>        -0.1165
     25 C20         5.1913    2.1178   -5.9552 C.ar      1 <0>        -0.1205
     26 C21         5.4858    1.1226   -5.0420 C.ar      1 <0>        -0.1143
     27 C22         5.7536   -0.1607   -5.4805 C.ar      1 <0>        -0.1129
     28 C23         7.5206   -2.0135   -7.4779 C.ar      1 <0>        -0.0716
     29 C24         8.3512   -1.9497   -6.3748 C.ar      1 <0>        -0.1088
     30 C25         9.7164   -2.1045   -6.5277 C.ar      1 <0>        -0.1179
     31 C26        10.2508   -2.3236   -7.7835 C.ar      1 <0>        -0.1213
     32 C27         9.4200   -2.3883   -8.8865 C.ar      1 <0>        -0.1179
     33 C28         8.0545   -2.2378   -8.7331 C.ar      1 <0>        -0.1137
     34 H1          1.7793    1.8229   -0.1370 H         1 <0>         0.0600
     35 H2          0.0695    1.9300   -0.6200 H         1 <0>         0.0600
     36 H3          0.5021    1.8136    1.1027 H         1 <0>         0.0585
     37 H4          1.3923   -0.4697    0.7250 H         1 <0>         0.0693
     38 H5         -0.3176   -0.3626    0.2420 H         1 <0>         0.0689
     39 H6          0.1388    1.2175   -2.3475 H         1 <0>         0.0766
     40 H7          0.3523   -0.1901   -3.4157 H         1 <0>         0.0761
     41 H8         -0.9249   -0.1993   -2.1760 H         1 <0>         0.0564
     42 H9          3.1851   -0.4567   -1.0152 H         1 <0>         0.0555
     43 H10         2.7524   -0.3404   -2.7379 H         1 <0>         0.0818
     44 H11         2.5389    1.0672   -1.6696 H         1 <0>         0.0747
     45 H12         1.0128   -5.4444   -1.3678 H         1 <0>         0.0786
     46 H13        -0.0534   -4.0350   -1.1351 H         1 <0>         0.1286
     47 H14        -1.3028   -6.1200   -1.8012 H         1 <0>         0.0846
     48 H15        -1.5089   -4.7816   -2.9574 H         1 <0>         0.0695
     49 H16         0.4905   -7.0710   -3.2409 H         1 <0>         0.0708
     50 H17        -1.0501   -6.9340   -4.1213 H         1 <0>         0.0770
     51 H18         0.8205   -6.1203   -5.5170 H         1 <0>         0.0849
     52 H19        -0.2801   -4.7818   -5.1077 H         1 <0>         0.0843
     53 H20         2.3662   -5.4434   -3.7494 H         1 <0>         0.1074
     54 H21         3.5637   -2.9937   -7.1845 H         1 <0>         0.0633
     55 H22         3.6984   -1.7633   -5.9054 H         1 <0>         0.0771
     56 H23         5.9432   -2.6306   -5.3075 H         1 <0>         0.0794
     57 H24         5.8085   -3.8610   -6.5866 H         1 <0>         0.0800
     58 H25         5.5382   -2.0138   -8.2679 H         1 <0>         0.0905
     59 H26         5.4226    0.3237   -8.8022 H         1 <0>         0.1200
     60 H27         4.9384    2.6080   -8.0206 H         1 <0>         0.1213
     61 H28         4.9795    3.1198   -5.6124 H         1 <0>         0.1204
     62 H29         5.5040    1.3472   -3.9857 H         1 <0>         0.1206
     63 H30         5.9800   -0.9390   -4.7669 H         1 <0>         0.1210
     64 H31         7.9337   -1.7785   -5.3936 H         1 <0>         0.1201
     65 H32        10.3654   -2.0539   -5.6659 H         1 <0>         0.1217
     66 H33        11.3174   -2.4438   -7.9031 H         1 <0>         0.1212
     67 H34         9.8376   -2.5592   -9.8678 H         1 <0>         0.1223
     68 H35         7.4051   -2.2920   -9.5943 H         1 <0>         0.1216
@<TRIPOS>BOND
     1    1    2 1
     2    1   34 1
     3    1   35 1
     4    1   36 1
     5    2    3 1
     6    2   37 1
     7    2   38 1
     8    3    4 1
     9    3    5 1
    10    3    6 1
    11    4   39 1
    12    4   40 1
    13    4   41 1
    14    5   42 1
    15    5   43 1
    16    5   44 1
    17    6    7 2
    18    6    8 1
    19    8    9 2
    20    8   10 am
    21   10   15 1
    22   10   11 1
    23   11   12 1
    24   11   45 1
    25   11   46 1
    26   12   13 1
    27   12   47 1
    28   12   48 1
    29   13   14 1
    30   13   49 1
    31   13   50 1
    32   14   15 1
    33   14   51 1
    34   14   52 1
    35   15   16 1
    36   15   53 1
    37   16   17 2
    38   16   18 1
    39   18   19 1
    40   19   20 1
    41   19   54 1
    42   19   55 1
    43   20   21 1
    44   20   56 1
    45   20   57 1
    46   21   22 1
    47   21   28 1
    48   21   58 1
    49   22   27 ar
    50   22   23 ar
    51   23   24 ar
    52   23   59 1
    53   24   25 ar
    54   24   60 1
    55   25   26 ar
    56   25   61 1
    57   26   27 ar
    58   26   62 1
    59   27   63 1
    60   28   33 ar
    61   28   29 ar
    62   29   30 ar
    63   29   64 1
    64   30   31 ar
    65   30   65 1
    66   31   32 ar
    67   31   66 1
    68   32   33 ar
    69   32   67 1
    70   33   68 1
@<TRIPOS>MOLECULE
CHEMBL34739
   59    61     0     0     0
SMALL
USER_CHARGES

@<TRIPOS>ATOM
      1 C1         -1.2596  -11.5152    1.5608 C.3       1 <0>        -0.1259
      2 C2         -0.9440  -10.0844    1.2083 C.ar      1 <0>        -0.0260
      3 C3         -0.7731   -9.1473    2.2100 C.ar      1 <0>        -0.1476
      4 C4         -0.4836   -7.8349    1.8866 C.ar      1 <0>        -0.0017
      5 C5         -0.3647   -7.4596    0.5615 C.ar      1 <0>        -0.6831
      6 C6         -0.5348   -8.3969   -0.4402 C.ar      1 <0>        -0.0190
      7 C7         -0.8200   -9.7103   -0.1167 C.ar      1 <0>        -0.1481
      8 S1          0.0030   -5.7865    0.1493 S.o2      1 <0>         2.6853
      9 O1         -0.4772   -5.5787   -1.1719 O.2       1 <0>        -0.9496
     10 O2         -0.4244   -4.9940    1.2486 O.2       1 <0>        -0.9434
     11 N1          1.6520   -5.6502    0.0804 N.pl3     1 <0>        -0.9879
     12 C8          2.3872   -6.0590   -1.1242 C.3       1 <0>         0.1227
     13 C9          3.4823   -7.0512   -0.7205 C.3       1 <0>        -0.1393
     14 C10         4.3573   -6.4243    0.3674 C.3       1 <0>        -0.1153
     15 C11         3.5024   -6.1206    1.5999 C.3       1 <0>        -0.1235
     16 C12         2.4070   -5.1126    1.2204 C.3       1 <0>         0.1640
     17 C13         1.4787   -4.9082    2.3899 C.2       1 <0>         0.4707
     18 O3          0.9821   -5.8620    2.9409 O.2       1 <0>        -0.5056
     19 O4          1.2037   -3.6666    2.8194 O.3       1 <0>        -0.3346
     20 C14         0.3158   -3.5471    3.9327 C.3       1 <0>         0.0713
     21 C15         0.1238   -2.0684    4.2754 C.3       1 <0>        -0.1145
     22 C16        -0.8269   -1.9404    5.4674 C.3       1 <0>        -0.0725
     23 C17        -1.0160   -0.4839    5.8050 C.ar      1 <0>        -0.1194
     24 C18        -0.1661    0.1318    6.7051 C.ar      1 <0>        -0.0755
     25 C19        -0.3376    1.4667    7.0166 C.ar      1 <0>        -0.1500
     26 C20        -1.3633    2.1896    6.4251 C.ar      1 <0>         0.1235
     27 C21        -2.2145    1.5695    5.5219 C.ar      1 <0>        -0.2060
     28 C22        -2.0355    0.2357    5.2098 C.ar      1 <0>        -0.0746
     29 O5         -1.5344    3.5028    6.7302 O.3       1 <0>        -0.3187
     30 C23        -2.6110    4.1843    6.0832 C.3       1 <0>         0.0268
     31 H1         -0.3309  -12.0734    1.6797 H         1 <0>         0.0793
     32 H2         -1.8226  -11.5439    2.4937 H         1 <0>         0.0730
     33 H3         -1.8534  -11.9633    0.7641 H         1 <0>         0.0727
     34 H4         -0.8659   -9.4405    3.2453 H         1 <0>         0.1308
     35 H5         -0.3507   -7.1026    2.6692 H         1 <0>         0.1651
     36 H6         -0.4423   -8.1037   -1.4755 H         1 <0>         0.1359
     37 H7         -0.9492  -10.4433   -0.8992 H         1 <0>         0.1317
     38 H8          1.7028   -6.5358   -1.8259 H         1 <0>         0.0926
     39 H9          2.8405   -5.1841   -1.5901 H         1 <0>         0.0840
     40 H10         3.0240   -7.9632   -0.3381 H         1 <0>         0.0708
     41 H11         4.0963   -7.2887   -1.5893 H         1 <0>         0.0825
     42 H12         5.1523   -7.1188    0.6390 H         1 <0>         0.0750
     43 H13         4.7957   -5.4994   -0.0073 H         1 <0>         0.0711
     44 H14         3.0439   -7.0414    1.9605 H         1 <0>         0.0837
     45 H15         4.1307   -5.6958    2.3828 H         1 <0>         0.0834
     46 H16         2.8619   -4.1621    0.9418 H         1 <0>         0.1132
     47 H17        -0.6476   -3.9891    3.6782 H         1 <0>         0.0800
     48 H18         0.7386   -4.0674    4.7921 H         1 <0>         0.0649
     49 H19         1.0871   -1.6264    4.5299 H         1 <0>         0.0740
     50 H20        -0.2990   -1.5481    3.4160 H         1 <0>         0.0762
     51 H21        -1.7902   -2.3824    5.2129 H         1 <0>         0.0760
     52 H22        -0.4041   -2.4607    6.3268 H         1 <0>         0.0755
     53 H23         0.6323   -0.4314    7.1653 H         1 <0>         0.1295
     54 H24         0.3261    1.9471    7.7203 H         1 <0>         0.1307
     55 H25        -3.0138    2.1301    5.0601 H         1 <0>         0.1280
     56 H26        -2.6951   -0.2463    4.5034 H         1 <0>         0.1254
     57 H27        -2.6354    5.2224    6.4148 H         1 <0>         0.1008
     58 H28        -2.4654    4.1510    5.0035 H         1 <0>         0.0559
     59 H29        -3.5533    3.6993    6.3379 H         1 <0>         0.0557
@<TRIPOS>BOND
     1    1    2 1
     2    1   31 1
     3    1   32 1
     4    1   33 1
     5    2    7 ar
     6    2    3 ar
     7    3    4 ar
     8    3   34 1
     9    4    5 ar
    10    4   35 1
    11    5    6 ar
    12    5    8 1
    13    6    7 ar
    14    6   36 1
    15    7   37 1
    16    8    9 2
    17    8   10 2
    18    8   11 1
    19   11   16 1
    20   11   12 1
    21   12   13 1
    22   12   38 1
    23   12   39 1
    24   13   14 1
    25   13   40 1
    26   13   41 1
    27   14   15 1
    28   14   42 1
    29   14   43 1
    30   15   16 1
    31   15   44 1
    32   15   45 1
    33   16   17 1
    34   16   46 1
    35   17   18 2
    36   17   19 1
    37   19   20 1
    38   20   21 1
    39   20   47 1
    40   20   48 1
    41   21   22 1
    42   21   49 1
    43   21   50 1
    44   22   23 1
    45   22   51 1
    46   22   52 1
    47   23   28 ar
    48   23   24 ar
    49   24   25 ar
    50   24   53 1
    51   25   26 ar
    52   25   54 1
    53   26   27 ar
    54   26   29 1
    55   27   28 ar
    56   27   55 1
    57   28   56 1
    58   29   30 1
    59   30   57 1
    60   30   58 1
    61   30   59 1
@<TRIPOS>MOLECULE
CHEMBL34739__1
   59    61     0     0     0
SMALL
USER_CHARGES

@<TRIPOS>ATOM
      1 C1          2.6272    1.8328    2.0807 C.3       1 <0>        -0.1251
      2 C2          2.1340    0.4991    1.5817 C.ar      1 <0>        -0.0266
      3 C3          2.3448    0.1326    0.2656 C.ar      1 <0>        -0.1494
      4 C4          1.8923   -1.0908   -0.1921 C.ar      1 <0>        -0.0180
      5 C5          1.2295   -1.9479    0.6664 C.ar      1 <0>        -0.6771
      6 C6          1.0196   -1.5817    1.9827 C.ar      1 <0>         0.0226
      7 C7          1.4758   -0.3602    2.4415 C.ar      1 <0>        -0.1492
      8 S1          0.6518   -3.5068    0.0827 S.o2      1 <0>         2.6876
      9 O1         -0.1290   -4.0682    1.1288 O.2       1 <0>        -0.9499
     10 O2          0.1320   -3.2850   -1.2211 O.2       1 <0>        -0.9511
     11 N1          1.9766   -4.4842   -0.0960 N.pl3     1 <0>        -0.9878
     12 C8          2.7098   -4.5261   -1.3685 C.3       1 <0>         0.1196
     13 C9          4.1911   -4.2489   -1.0933 C.3       1 <0>        -0.1398
     14 C10         4.7032   -5.2341   -0.0401 C.3       1 <0>        -0.1145
     15 C11         3.9252   -5.0400    1.2635 C.3       1 <0>        -0.1257
     16 C12         2.4446   -5.3216    1.0169 C.3       1 <0>         0.1674
     17 C13         1.6568   -4.9964    2.2598 C.2       1 <0>         0.4651
     18 O3          1.6650   -3.8726    2.7035 O.2       1 <0>        -0.5017
     19 O4          0.9461   -5.9553    2.8739 O.3       1 <0>        -0.3334
     20 C14         0.2233   -5.5763    4.0470 C.3       1 <0>         0.0689
     21 C15        -0.5202   -6.7925    4.6030 C.3       1 <0>        -0.1144
     22 C16        -1.2941   -6.3868    5.8590 C.3       1 <0>        -0.0724
     23 C17        -2.0264   -7.5846    6.4066 C.ar      1 <0>        -0.1198
     24 C18        -3.3112   -7.8631    5.9786 C.ar      1 <0>        -0.0747
     25 C19        -3.9848   -8.9603    6.4794 C.ar      1 <0>        -0.1494
     26 C20        -3.3708   -9.7833    7.4123 C.ar      1 <0>         0.1238
     27 C21        -2.0813   -9.5020    7.8399 C.ar      1 <0>        -0.2065
     28 C22        -1.4101   -8.4065    7.3321 C.ar      1 <0>        -0.0752
     29 O5         -4.0315  -10.8630    7.9069 O.3       1 <0>        -0.3184
     30 C23        -3.3377  -11.6657    8.8641 C.3       1 <0>         0.0269
     31 H1          3.6436    1.7257    2.4596 H         1 <0>         0.0784
     32 H2          2.6186    2.5527    1.2623 H         1 <0>         0.0722
     33 H3          1.9763    2.1847    2.8810 H         1 <0>         0.0723
     34 H4          2.8626    0.8022   -0.4051 H         1 <0>         0.1302
     35 H5          2.0564   -1.3769   -1.2206 H         1 <0>         0.1298
     36 H6          0.5014   -2.2512    2.6534 H         1 <0>         0.1510
     37 H7          1.3150   -0.0757    3.4709 H         1 <0>         0.1295
     38 H8          2.6004   -5.5116   -1.8210 H         1 <0>         0.0838
     39 H9          2.3151   -3.7662   -2.0429 H         1 <0>         0.0966
     40 H10         4.7614   -4.3717   -2.0141 H         1 <0>         0.0831
     41 H11         4.3083   -3.2296   -0.7254 H         1 <0>         0.0709
     42 H12         4.5630   -6.2540   -0.3982 H         1 <0>         0.0714
     43 H13         5.7633   -5.0551    0.1396 H         1 <0>         0.0750
     44 H14         4.3063   -5.7259    2.0201 H         1 <0>         0.0842
     45 H15         4.0449   -4.0133    1.6091 H         1 <0>         0.0823
     46 H16         2.3130   -6.3735    0.7632 H         1 <0>         0.1131
     47 H17         0.9193   -5.2016    4.7975 H         1 <0>         0.0660
     48 H18        -0.4944   -4.7956    3.7952 H         1 <0>         0.0792
     49 H19        -1.2163   -7.1672    3.8526 H         1 <0>         0.0778
     50 H20         0.1975   -7.5732    4.8548 H         1 <0>         0.0739
     51 H21        -0.5980   -6.0121    6.6094 H         1 <0>         0.0746
     52 H22        -2.0118   -5.6060    5.6072 H         1 <0>         0.0771
     53 H23        -3.7888   -7.2221    5.2523 H         1 <0>         0.1304
     54 H24        -4.9887   -9.1770    6.1453 H         1 <0>         0.1311
     55 H25        -1.6012  -10.1411    8.5661 H         1 <0>         0.1278
     56 H26        -0.4046   -8.1896    7.6613 H         1 <0>         0.1245
     57 H27        -3.9762  -12.4920    9.1764 H         1 <0>         0.1008
     58 H28        -2.4264  -12.0605    8.4148 H         1 <0>         0.0557
     59 H29        -3.0811  -11.0570    9.7311 H         1 <0>         0.0556
@<TRIPOS>BOND
     1    1    2 1
     2    1   31 1
     3    1   32 1
     4    1   33 1
     5    2    7 ar
     6    2    3 ar
     7    3    4 ar
     8    3   34 1
     9    4    5 ar
    10    4   35 1
    11    5    6 ar
    12    5    8 1
    13    6    7 ar
    14    6   36 1
    15    7   37 1
    16    8    9 2
    17    8   10 2
    18    8   11 1
    19   11   16 1
    20   11   12 1
    21   12   13 1
    22   12   38 1
    23   12   39 1
    24   13   14 1
    25   13   40 1
    26   13   41 1
    27   14   15 1
    28   14   42 1
    29   14   43 1
    30   15   16 1
    31   15   44 1
    32   15   45 1
    33   16   17 1
    34   16   46 1
    35   17   18 2
    36   17   19 1
    37   19   20 1
    38   20   21 1
    39   20   47 1
    40   20   48 1
    41   21   22 1
    42   21   49 1
    43   21   50 1
    44   22   23 1
    45   22   51 1
    46   22   52 1
    47   23   28 ar
    48   23   24 ar
    49   24   25 ar
    50   24   53 1
    51   25   26 ar
    52   25   54 1
    53   26   27 ar
    54   26   29 1
    55   27   28 ar
    56   27   55 1
    57   28   56 1
    58   29   30 1
    59   30   57 1
    60   30   58 1
    61   30   59 1
@<TRIPOS>MOLECULE
CHEMBL324792
   62    63     0     0     0
SMALL
USER_CHARGES

@<TRIPOS>ATOM
      1 C1         -3.4497    0.4263    3.9631 C.3       1 <0>        -0.1557
      2 C2         -3.0326   -0.9626    3.4754 C.3       1 <0>        -0.1083
      3 C3         -1.5989   -1.2517    3.9249 C.3       1 <0>        -0.0877
      4 C4         -0.6575   -0.1999    3.3347 C.3       1 <0>        -0.1451
      5 C5         -1.5239   -1.2037    5.4523 C.3       1 <0>        -0.1468
      6 C6         -1.1881   -2.6197    3.4445 C.2       1 <0>         0.3672
      7 O1         -1.9622   -3.2940    2.8082 O.2       1 <0>        -0.4101
      8 C7          0.1739   -3.1407    3.7547 C.2       1 <0>         0.4706
      9 O2          0.8910   -2.5415    4.5291 O.2       1 <0>        -0.4785
     10 N1          0.6088   -4.2772    3.1752 N.am      1 <0>        -0.5765
     11 C8         -0.2139   -4.9690    2.1735 C.3       1 <0>         0.0642
     12 C9          0.6234   -5.1794    0.9080 C.3       1 <0>        -0.1375
     13 C10         1.9171   -5.9111    1.2729 C.3       1 <0>        -0.1201
     14 C11         2.7279   -5.0596    2.2525 C.3       1 <0>        -0.1244
     15 C12         1.9171   -4.8446    3.5287 C.3       1 <0>         0.0900
     16 H1          1.7766   -5.8001    4.0341 H         1 <0>         0.0976
     17 C13         2.6518   -3.8927    4.4371 C.2       1 <0>         0.3617
     18 O3          2.8637   -2.7589    4.0793 O.2       1 <0>        -0.4138
     19 C14         3.1221   -4.3556    5.7919 C.3       1 <0>        -0.1591
     20 C15         3.8334   -3.2043    6.5057 C.3       1 <0>        -0.1068
     21 C16         4.3108   -3.6743    7.8812 C.3       1 <0>        -0.1190
     22 C17         5.0221   -2.5230    8.5950 C.3       1 <0>        -0.1137
     23 C18         5.4995   -2.9930    9.9705 C.3       1 <0>        -0.0772
     24 C19         6.2001   -1.8590   10.6736 C.ar      1 <0>        -0.1327
     25 C20         7.5654   -1.6728   10.5176 C.ar      1 <0>        -0.0751
     26 C21         8.1675   -0.6165   11.1836 C.ar      1 <0>        -0.1699
     27 C22         7.3925    0.2102   11.9752 C.ar      1 <0>         0.0914
     28 N2          6.0965    0.0027   12.1007 N.ar      1 <0>        -0.4834
     29 C23         5.4892   -0.9883   11.4773 C.ar      1 <0>         0.0997
     30 H2         -2.7790    1.1756    3.5427 H         1 <0>         0.0599
     31 H3         -4.4711    0.6322    3.6429 H         1 <0>         0.0582
     32 H4         -3.3962    0.4605    5.0513 H         1 <0>         0.0602
     33 H5         -3.7033   -1.7119    3.8959 H         1 <0>         0.0688
     34 H6         -3.0861   -0.9968    2.3873 H         1 <0>         0.0683
     35 H7         -0.9547    0.7896    3.6822 H         1 <0>         0.0759
     36 H8          0.3638   -0.4058    3.6549 H         1 <0>         0.0772
     37 H9         -0.7110   -0.2340    2.2466 H         1 <0>         0.0554
     38 H10        -2.1945   -1.9530    5.8728 H         1 <0>         0.0549
     39 H11        -0.5025   -1.4096    5.7725 H         1 <0>         0.0827
     40 H12        -1.8211   -0.2142    5.7998 H         1 <0>         0.0742
     41 H13        -0.5321   -5.9348    2.5659 H         1 <0>         0.0738
     42 H14        -1.0880   -4.3625    1.9366 H         1 <0>         0.1379
     43 H15         0.0575   -5.7758    0.1923 H         1 <0>         0.0812
     44 H16         0.8645   -4.2125    0.4664 H         1 <0>         0.0668
     45 H17         1.6749   -6.8672    1.7370 H         1 <0>         0.0683
     46 H18         2.5034   -6.0840    0.3704 H         1 <0>         0.0726
     47 H19         3.6599   -5.5708    2.4937 H         1 <0>         0.0815
     48 H20         2.9492   -4.0939    1.7982 H         1 <0>         0.0763
     49 H21         2.2649   -4.6760    6.3841 H         1 <0>         0.0928
     50 H22         3.8127   -5.1902    5.6712 H         1 <0>         0.0922
     51 H23         4.6906   -2.8839    5.9135 H         1 <0>         0.0651
     52 H24         3.1428   -2.3697    6.6265 H         1 <0>         0.0725
     53 H25         3.4536   -3.9947    8.4734 H         1 <0>         0.0636
     54 H26         5.0014   -4.5089    7.7605 H         1 <0>         0.0624
     55 H27         5.8793   -2.2026    8.0028 H         1 <0>         0.0633
     56 H28         4.3315   -1.6884    8.7158 H         1 <0>         0.0654
     57 H29         4.6423   -3.3134   10.5627 H         1 <0>         0.0764
     58 H30         6.1901   -3.8276    9.8498 H         1 <0>         0.0744
     59 H31         8.1459   -2.3351    9.8925 H         1 <0>         0.1330
     60 H32         9.2288   -0.4418   11.0853 H         1 <0>         0.1350
     61 H33         7.8540    1.0353   12.4973 H         1 <0>         0.1552
     62 H34         4.4248   -1.1236   11.6000 H         1 <0>         0.1536
@<TRIPOS>BOND
     1    1    2 1
     2    1   30 1
     3    1   31 1
     4    1   32 1
     5    2    3 1
     6    2   33 1
     7    2   34 1
     8    3    4 1
     9    3    5 1
    10    3    6 1
    11    4   35 1
    12    4   36 1
    13    4   37 1
    14    5   38 1
    15    5   39 1
    16    5   40 1
    17    6    7 2
    18    6    8 1
    19    8    9 2
    20    8   10 am
    21   10   15 1
    22   10   11 1
    23   11   12 1
    24   11   41 1
    25   11   42 1
    26   12   13 1
    27   12   43 1
    28   12   44 1
    29   13   14 1
    30   13   45 1
    31   13   46 1
    32   14   15 1
    33   14   47 1
    34   14   48 1
    35   15   16 1
    36   15   17 1
    37   17   18 2
    38   17   19 1
    39   19   20 1
    40   19   49 1
    41   19   50 1
    42   20   21 1
    43   20   51 1
    44   20   52 1
    45   21   22 1
    46   21   53 1
    47   21   54 1
    48   22   23 1
    49   22   55 1
    50   22   56 1
    51   23   24 1
    52   23   57 1
    53   23   58 1
    54   24   29 ar
    55   24   25 ar
    56   25   26 ar
    57   25   59 1
    58   26   27 ar
    59   26   60 1
    60   27   28 ar
    61   27   61 1
    62   28   29 ar
    63   29   62 1
@<TRIPOS>MOLECULE
CHEMBL334179
   51    52     0     0     0
SMALL
USER_CHARGES

@<TRIPOS>ATOM
      1 C1         -0.0187    1.5258    0.0104 C.3       1 <0>        -0.1367
      2 C2          0.0021   -0.0041    0.0020 C.3       1 <0>        -0.0924
      3 C3          0.7421   -0.5109    1.2415 C.3       1 <0>        -0.1440
      4 C4         -1.4333   -0.5336    0.0129 C.3       1 <0>        -0.1439
      5 C5          0.7074   -0.4901   -1.2379 C.2       1 <0>         0.3664
      6 O1          1.1482    0.3052   -2.0329 O.2       1 <0>        -0.4135
      7 C6          0.8613   -1.9526   -1.4831 C.2       1 <0>         0.4962
      8 O2          0.4184   -2.7517   -0.6843 O.2       1 <0>        -0.4991
      9 N1          1.4921   -2.3872   -2.5920 N.am      1 <0>        -0.5855
     10 C7          2.0809   -1.5303   -3.6372 C.3       1 <0>         0.0945
     11 C8          3.1681   -2.4091   -4.3045 C.3       1 <0>        -0.1374
     12 C9          2.4932   -3.8061   -4.2875 C.3       1 <0>        -0.1193
     13 C10         1.7126   -3.7944   -2.9564 C.3       1 <0>         0.0824
     14 H1          0.7548   -4.2982   -3.0861 H         1 <0>         0.1085
     15 C11         2.5155   -4.4822   -1.8824 C.2       1 <0>         0.3508
     16 O3          3.0996   -3.8276   -1.0526 O.2       1 <0>        -0.4310
     17 C12         2.5895   -5.9869   -1.8441 C.3       1 <0>        -0.1672
     18 C13         3.4610   -6.4247   -0.6653 C.3       1 <0>        -0.1038
     19 C14         3.5361   -7.9524   -0.6263 C.3       1 <0>        -0.0807
     20 C15         4.3946   -8.3837    0.5348 C.ar      1 <0>        -0.0826
     21 C16         5.7567   -8.5464    0.3644 C.ar      1 <0>        -0.1180
     22 C17         6.5441   -8.9420    1.4294 C.ar      1 <0>        -0.1184
     23 C18         5.9695   -9.1745    2.6650 C.ar      1 <0>        -0.1249
     24 C19         4.6075   -9.0109    2.8357 C.ar      1 <0>        -0.1179
     25 C20         3.8207   -8.6111    1.7717 C.ar      1 <0>        -0.1172
     26 H2          1.0039    1.9031    0.0027 H         1 <0>         0.0621
     27 H3         -0.5459    1.8868   -0.8726 H         1 <0>         0.0621
     28 H4         -0.5289    1.8773    0.9072 H         1 <0>         0.0694
     29 H5          0.2319   -0.1594    2.1383 H         1 <0>         0.0719
     30 H6          0.7568   -1.6008    1.2356 H         1 <0>         0.0787
     31 H7          1.7647   -0.1336    1.2338 H         1 <0>         0.0563
     32 H8         -1.9605   -0.1726   -0.8702 H         1 <0>         0.0561
     33 H9         -1.4185   -1.6235    0.0069 H         1 <0>         0.0782
     34 H10        -1.9435   -0.1821    0.9097 H         1 <0>         0.0726
     35 H11         1.3224   -1.2462   -4.3666 H         1 <0>         0.0782
     36 H12         2.5310   -0.6433   -3.1915 H         1 <0>         0.0977
     37 H13         3.3627   -2.0816   -5.3258 H         1 <0>         0.0942
     38 H14         4.0850   -2.4110   -3.7152 H         1 <0>         0.0793
     39 H15         1.8165   -3.9178   -5.1347 H         1 <0>         0.0937
     40 H16         3.2434   -4.5969   -4.2851 H         1 <0>         0.0899
     41 H17         1.5865   -6.3971   -1.7265 H         1 <0>         0.1016
     42 H18         3.0251   -6.3530   -2.7737 H         1 <0>         0.1002
     43 H19         4.4640   -6.0145   -0.7828 H         1 <0>         0.0690
     44 H20         3.0254   -6.0586    0.2644 H         1 <0>         0.0707
     45 H21         2.5331   -8.3626   -0.5087 H         1 <0>         0.0740
     46 H22         3.9718   -8.3186   -1.5559 H         1 <0>         0.0736
     47 H23         6.2056   -8.3648   -0.6009 H         1 <0>         0.1203
     48 H24         7.6082   -9.0698    1.2961 H         1 <0>         0.1214
     49 H25         6.5846   -9.4842    3.4970 H         1 <0>         0.1210
     50 H26         4.1585   -9.1928    3.8009 H         1 <0>         0.1217
     51 H27         2.7572   -8.4797    1.9059 H         1 <0>         0.1209
@<TRIPOS>BOND
     1    1    2 1
     2    1   26 1
     3    1   27 1
     4    1   28 1
     5    2    3 1
     6    2    4 1
     7    2    5 1
     8    3   29 1
     9    3   30 1
    10    3   31 1
    11    4   32 1
    12    4   33 1
    13    4   34 1
    14    5    6 2
    15    5    7 1
    16    7    8 2
    17    7    9 am
    18    9   13 1
    19    9   10 1
    20   10   11 1
    21   10   35 1
    22   10   36 1
    23   11   12 1
    24   11   37 1
    25   11   38 1
    26   12   13 1
    27   12   39 1
    28   12   40 1
    29   13   14 1
    30   13   15 1
    31   15   16 2
    32   15   17 1
    33   17   18 1
    34   17   41 1
    35   17   42 1
    36   18   19 1
    37   18   43 1
    38   18   44 1
    39   19   20 1
    40   19   45 1
    41   19   46 1
    42   20   25 ar
    43   20   21 ar
    44   21   22 ar
    45   21   47 1
    46   22   23 ar
    47   22   48 1
    48   23   24 ar
    49   23   49 1
    50   24   25 ar
    51   24   50 1
    52   25   51 1
@<TRIPOS>MOLECULE
CHEMBL146204
   59    61     0     0     0
SMALL
USER_CHARGES

@<TRIPOS>ATOM
      1 C1         -1.1767   -2.6284    0.1569 C.ar      1 <0>        -0.1237
      2 C2         -0.5590   -1.4106    0.3720 C.ar      1 <0>        -0.1181
      3 C3          0.8203   -1.3212    0.3471 C.ar      1 <0>        -0.1166
      4 C4          1.5818   -2.4497    0.1075 C.ar      1 <0>        -0.0823
      5 C5          0.9641   -3.6677   -0.1067 C.ar      1 <0>        -0.1164
      6 C6         -0.4151   -3.7568   -0.0832 C.ar      1 <0>        -0.1180
      7 C7          3.0854   -2.3521    0.0794 C.3       1 <0>        -0.0779
      8 C8          3.6383   -2.5899    1.4860 C.3       1 <0>        -0.1119
      9 C9          5.1648   -2.4908    1.4575 C.3       1 <0>         0.0714
     10 O1          5.6812   -2.7130    2.7713 O.3       1 <0>        -0.3544
     11 C10         7.0143   -2.6598    2.9191 C.2       1 <0>         0.4684
     12 O2          7.7194   -2.4322    1.9647 O.2       1 <0>        -0.4693
     13 C11         7.6315   -2.8840    4.2755 C.3       1 <0>         0.1512
     14 C12         8.4137   -1.6358    4.6964 C.3       1 <0>        -0.1242
     15 C13         9.1512   -1.9189    6.0072 C.3       1 <0>        -0.1193
     16 C14        10.1449   -3.0639    5.7984 C.3       1 <0>        -0.1395
     17 C15         9.3824   -4.3283    5.3900 C.3       1 <0>         0.0741
     18 N1          8.5571   -4.0234    4.2132 N.am      1 <0>        -0.5807
     19 C16         8.6473   -4.7746    3.0979 C.2       1 <0>         0.4674
     20 O3          8.0623   -4.4367    2.0897 O.2       1 <0>        -0.4780
     21 C17         9.4658   -6.0207    3.1026 C.2       1 <0>         0.3648
     22 O4          9.9282   -6.4356    4.1384 O.2       1 <0>        -0.4080
     23 C18         9.7162   -6.7626    1.8150 C.3       1 <0>        -0.1165
     24 C19         8.5458   -7.7073    1.5349 C.3       1 <0>        -0.1047
     25 C20         8.8000   -8.4606    0.2277 C.3       1 <0>        -0.1163
     26 C21        10.0919   -9.2713    0.3491 C.3       1 <0>        -0.1232
     27 C22        11.2623   -8.3266    0.6293 C.3       1 <0>        -0.1188
     28 C23        11.0081   -7.5733    1.9365 C.3       1 <0>        -0.1087
     29 H1         -2.2541   -2.6991    0.1808 H         1 <0>         0.1214
     30 H2         -1.1539   -0.5289    0.5592 H         1 <0>         0.1221
     31 H3          1.3028   -0.3696    0.5145 H         1 <0>         0.1216
     32 H4          1.5591   -4.5493   -0.2942 H         1 <0>         0.1216
     33 H5         -0.8977   -4.7083   -0.2509 H         1 <0>         0.1221
     34 H6          3.4857   -3.1043   -0.6003 H         1 <0>         0.0770
     35 H7          3.3787   -1.3598   -0.2633 H         1 <0>         0.0766
     36 H8          3.2380   -1.8377    2.1658 H         1 <0>         0.0751
     37 H9          3.3450   -3.5822    1.8288 H         1 <0>         0.0751
     38 H10         5.5651   -3.2430    0.7778 H         1 <0>         0.0713
     39 H11         5.4581   -1.4985    1.1148 H         1 <0>         0.0657
     40 H12         6.8475   -3.0895    5.0043 H         1 <0>         0.1090
     41 H13         9.1355   -1.3800    3.9208 H         1 <0>         0.0820
     42 H14         7.7230   -0.8048    4.8397 H         1 <0>         0.0857
     43 H15         9.6888   -1.0244    6.3218 H         1 <0>         0.0769
     44 H16         8.4310   -2.1987    6.7760 H         1 <0>         0.0712
     45 H17        10.8504   -2.7947    5.0124 H         1 <0>         0.0691
     46 H18        10.6864   -3.2494    6.7260 H         1 <0>         0.0844
     47 H19        10.0911   -5.1191    5.1442 H         1 <0>         0.1352
     48 H20         8.7425   -4.6505    6.2114 H         1 <0>         0.0773
     49 H21         9.8108   -6.0487    0.9968 H         1 <0>         0.1091
     50 H22         8.4512   -8.4212    2.3531 H         1 <0>         0.0679
     51 H23         7.6254   -7.1298    1.4484 H         1 <0>         0.0726
     52 H24         7.9661   -9.1336    0.0281 H         1 <0>         0.0686
     53 H25         8.8946   -7.7467   -0.5906 H         1 <0>         0.0672
     54 H26         9.9973   -9.9852    1.1673 H         1 <0>         0.0637
     55 H27        10.2730   -9.8079   -0.5822 H         1 <0>         0.0654
     56 H28        12.1827   -8.9041    0.7158 H         1 <0>         0.0683
     57 H29        11.3569   -7.6127   -0.1890 H         1 <0>         0.0650
     58 H30        11.8420   -6.9003    2.1361 H         1 <0>         0.0662
     59 H31        10.9135   -8.2872    2.7547 H         1 <0>         0.0750
@<TRIPOS>BOND
     1    1    6 ar
     2    1    2 ar
     3    1   29 1
     4    2    3 ar
     5    2   30 1
     6    3    4 ar
     7    3   31 1
     8    4    5 ar
     9    4    7 1
    10    5    6 ar
    11    5   32 1
    12    6   33 1
    13    7    8 1
    14    7   34 1
    15    7   35 1
    16    8    9 1
    17    8   36 1
    18    8   37 1
    19    9   10 1
    20    9   38 1
    21    9   39 1
    22   10   11 1
    23   11   12 2
    24   11   13 1
    25   13   18 1
    26   13   14 1
    27   13   40 1
    28   14   15 1
    29   14   41 1
    30   14   42 1
    31   15   16 1
    32   15   43 1
    33   15   44 1
    34   16   17 1
    35   16   45 1
    36   16   46 1
    37   17   18 1
    38   17   47 1
    39   17   48 1
    40   18   19 am
    41   19   20 2
    42   19   21 1
    43   21   22 2
    44   21   23 1
    45   23   28 1
    46   23   24 1
    47   23   49 1
    48   24   25 1
    49   24   50 1
    50   24   51 1
    51   25   26 1
    52   25   52 1
    53   25   53 1
    54   26   27 1
    55   26   54 1
    56   26   55 1
    57   27   28 1
    58   27   56 1
    59   27   57 1
    60   28   58 1
    61   28   59 1
@<TRIPOS>MOLECULE
CHEMBL146204__1
   59    61     0     0     0
SMALL
USER_CHARGES

@<TRIPOS>ATOM
      1 C1          1.4137    1.5625   -1.7852 C.ar      1 <0>        -0.1237
      2 C2          2.7334    1.5255   -2.1950 C.ar      1 <0>        -0.1180
      3 C3          3.5605    0.5023   -1.7708 C.ar      1 <0>        -0.1164
      4 C4          3.0679   -0.4836   -0.9364 C.ar      1 <0>        -0.0824
      5 C5          1.7484   -0.4462   -0.5259 C.ar      1 <0>        -0.1166
      6 C6          0.9210    0.5762   -0.9513 C.ar      1 <0>        -0.1181
      7 C7          3.9693   -1.5996   -0.4747 C.3       1 <0>        -0.0780
      8 C8          4.6548   -1.1942    0.8316 C.3       1 <0>        -0.1117
      9 C9          5.5700   -2.3272    1.3003 C.3       1 <0>         0.0710
     10 O1          6.2103   -1.9485    2.5204 O.3       1 <0>        -0.3521
     11 C10         7.0526   -2.8385    3.0683 C.2       1 <0>         0.4681
     12 O2          7.2400   -3.9038    2.5299 O.2       1 <0>        -0.4729
     13 C11         7.7645   -2.5090    4.3551 C.3       1 <0>         0.1546
     14 C12         7.1827   -3.3520    5.4943 C.3       1 <0>        -0.1244
     15 C13         7.9996   -3.1161    6.7667 C.3       1 <0>        -0.1188
     16 C14         9.4477   -3.5529    6.5335 C.3       1 <0>        -0.1351
     17 C15        10.0552   -2.7122    5.4061 C.3       1 <0>         0.0902
     18 N1          9.1943   -2.8188    4.2202 N.am      1 <0>        -0.5883
     19 C16         9.7066   -3.1935    3.0312 C.2       1 <0>         0.4727
     20 O3          9.0252   -3.1277    2.0290 O.2       1 <0>        -0.4766
     21 C17        11.1102   -3.6890    2.9471 C.2       1 <0>         0.3644
     22 O4         11.6138   -4.2407    3.8963 O.2       1 <0>        -0.4088
     23 C18        11.9007   -3.5015    1.6779 C.3       1 <0>        -0.1159
     24 C19        11.5935   -4.6474    0.7117 C.3       1 <0>        -0.1067
     25 C20        12.3961   -4.4570   -0.5769 C.3       1 <0>        -0.1160
     26 C21        13.8909   -4.4518   -0.2507 C.3       1 <0>        -0.1237
     27 C22        14.1980   -3.3058    0.7154 C.3       1 <0>        -0.1182
     28 C23        13.3955   -3.4962    2.0041 C.3       1 <0>        -0.1091
     29 H1          0.7688    2.3643   -2.1131 H         1 <0>         0.1214
     30 H2          3.1182    2.2958   -2.8469 H         1 <0>         0.1222
     31 H3          4.5913    0.4731   -2.0915 H         1 <0>         0.1217
     32 H4          1.3635   -1.2167    0.1256 H         1 <0>         0.1215
     33 H5         -0.1099    0.6053   -0.6309 H         1 <0>         0.1221
     34 H6          3.3775   -2.5001   -0.3102 H         1 <0>         0.0765
     35 H7          4.7245   -1.7952   -1.2359 H         1 <0>         0.0770
     36 H8          5.2466   -0.2937    0.6671 H         1 <0>         0.0757
     37 H9          3.8996   -0.9986    1.5928 H         1 <0>         0.0753
     38 H10         4.9782   -3.2277    1.4648 H         1 <0>         0.0657
     39 H11         6.3252   -2.5228    0.5391 H         1 <0>         0.0714
     40 H12         7.6397   -1.4500    4.5809 H         1 <0>         0.1102
     41 H13         6.1463   -3.0625    5.6684 H         1 <0>         0.0878
     42 H14         7.2257   -4.4072    5.2246 H         1 <0>         0.0798
     43 H15         7.9765   -2.0567    7.0219 H         1 <0>         0.0715
     44 H16         7.5727   -3.6960    7.5850 H         1 <0>         0.0778
     45 H17        10.0236   -3.4065    7.4473 H         1 <0>         0.0837
     46 H18         9.4695   -4.6063    6.2540 H         1 <0>         0.0727
     47 H19        10.1174   -1.6703    5.7200 H         1 <0>         0.0756
     48 H20        11.0518   -3.0847    5.1688 H         1 <0>         0.1141
     49 H21        11.6263   -2.5532    1.2157 H         1 <0>         0.1035
     50 H22        11.8679   -5.5957    1.1739 H         1 <0>         0.0671
     51 H23        10.5286   -4.6511    0.4793 H         1 <0>         0.0787
     52 H24        12.1772   -5.2734   -1.2652 H         1 <0>         0.0686
     53 H25        12.1217   -3.5087   -1.0390 H         1 <0>         0.0660
     54 H26        14.1652   -5.4000    0.2114 H         1 <0>         0.0637
     55 H27        14.4626   -4.3161   -1.1688 H         1 <0>         0.0651
     56 H28        15.2630   -3.3021    0.9478 H         1 <0>         0.0681
     57 H29        13.9237   -2.3575    0.2533 H         1 <0>         0.0644
     58 H30        13.6143   -2.6798    2.6923 H         1 <0>         0.0660
     59 H31        13.6699   -4.4445    2.4662 H         1 <0>         0.0753
@<TRIPOS>BOND
     1    1    6 ar
     2    1    2 ar
     3    1   29 1
     4    2    3 ar
     5    2   30 1
     6    3    4 ar
     7    3   31 1
     8    4    5 ar
     9    4    7 1
    10    5    6 ar
    11    5   32 1
    12    6   33 1
    13    7    8 1
    14    7   34 1
    15    7   35 1
    16    8    9 1
    17    8   36 1
    18    8   37 1
    19    9   10 1
    20    9   38 1
    21    9   39 1
    22   10   11 1
    23   11   12 2
    24   11   13 1
    25   13   18 1
    26   13   14 1
    27   13   40 1
    28   14   15 1
    29   14   41 1
    30   14   42 1
    31   15   16 1
    32   15   43 1
    33   15   44 1
    34   16   17 1
    35   16   45 1
    36   16   46 1
    37   17   18 1
    38   17   47 1
    39   17   48 1
    40   18   19 am
    41   19   20 2
    42   19   21 1
    43   21   22 2
    44   21   23 1
    45   23   28 1
    46   23   24 1
    47   23   49 1
    48   24   25 1
    49   24   50 1
    50   24   51 1
    51   25   26 1
    52   25   52 1
    53   25   53 1
    54   26   27 1
    55   26   54 1
    56   26   55 1
    57   27   28 1
    58   27   56 1
    59   27   57 1
    60   28   58 1
    61   28   59 1
@<TRIPOS>MOLECULE
CHEMBL146203
   66    68     0     0     0
SMALL
USER_CHARGES

@<TRIPOS>ATOM
      1 C1          1.4022    3.6268   -0.8342 C.3       1 <0>         0.0269
      2 O1          0.8632    2.3702   -1.2496 O.3       1 <0>        -0.3187
      3 C2          1.5140    1.7200   -2.2499 C.ar      1 <0>         0.1225
      4 C3          2.6515    2.2772   -2.8159 C.ar      1 <0>        -0.2060
      5 C4          3.3116    1.6140   -3.8323 C.ar      1 <0>        -0.0764
      6 C5          2.8392    0.3962   -4.2857 C.ar      1 <0>        -0.1204
      7 C6          1.7056   -0.1610   -3.7235 C.ar      1 <0>        -0.0768
      8 C7          1.0454    0.4953   -2.7027 C.ar      1 <0>        -0.1497
      9 C8          3.5610   -0.3248   -5.3948 C.3       1 <0>        -0.0739
     10 C9          4.6232   -1.2488   -4.7959 C.3       1 <0>        -0.1113
     11 C10         5.3560   -1.9808   -5.9220 C.3       1 <0>        -0.1183
     12 C11         6.4183   -2.9048   -5.3230 C.3       1 <0>         0.0712
     13 O2          7.1027   -3.5885   -6.3748 O.3       1 <0>        -0.3550
     14 C12         8.0727   -4.4439   -6.0155 C.2       1 <0>         0.4680
     15 O3          8.3322   -4.6067   -4.8467 O.2       1 <0>        -0.4694
     16 C13         8.8382   -5.2011   -7.0698 C.3       1 <0>         0.1513
     17 C14         8.6423   -6.7066   -6.8649 C.3       1 <0>        -0.1242
     18 C15         9.5304   -7.4712   -7.8492 C.3       1 <0>        -0.1192
     19 C16        10.9991   -7.1344   -7.5814 C.3       1 <0>        -0.1396
     20 C17        11.2217   -5.6338   -7.7944 C.3       1 <0>         0.0741
     21 N1         10.2699   -4.8909   -6.9571 N.am      1 <0>        -0.5807
     22 C18        10.7019   -3.9430   -6.1020 C.2       1 <0>         0.4672
     23 O4          9.9262   -3.4302   -5.3221 O.2       1 <0>        -0.4777
     24 C19        12.1328   -3.5243   -6.1141 C.2       1 <0>         0.3649
     25 O5         12.8718   -3.9245   -6.9816 O.2       1 <0>        -0.4081
     26 C20        12.6570   -2.6018   -5.0439 C.3       1 <0>        -0.1166
     27 C21        12.3812   -1.1504   -5.4417 C.3       1 <0>        -0.1047
     28 C22        12.9134   -0.2139   -4.3552 C.3       1 <0>        -0.1163
     29 C23        14.4209   -0.4215   -4.1965 C.3       1 <0>        -0.1231
     30 C24        14.6967   -1.8729   -3.7987 C.3       1 <0>        -0.1188
     31 C25        14.1645   -2.8095   -4.8852 C.3       1 <0>        -0.1088
     32 H1          2.4218    3.4842   -0.4761 H         1 <0>         0.0556
     33 H2          1.4067    4.3170   -1.6779 H         1 <0>         0.0556
     34 H3          0.7894    4.0377   -0.0319 H         1 <0>         0.1009
     35 H4          3.0204    3.2287   -2.4626 H         1 <0>         0.1276
     36 H5          4.1971    2.0474   -4.2732 H         1 <0>         0.1242
     37 H6          1.3384   -1.1121   -4.0796 H         1 <0>         0.1290
     38 H7          0.1625    0.0576   -2.2609 H         1 <0>         0.1305
     39 H8          2.8473   -0.9157   -5.9688 H         1 <0>         0.0739
     40 H9          4.0400    0.4029   -6.0498 H         1 <0>         0.0729
     41 H10         5.3370   -0.6578   -4.2219 H         1 <0>         0.0673
     42 H11         4.1442   -1.9765   -4.1409 H         1 <0>         0.0678
     43 H12         4.6423   -2.5718   -6.4959 H         1 <0>         0.0743
     44 H13         5.8351   -1.2531   -6.5770 H         1 <0>         0.0739
     45 H14         7.1320   -2.3139   -4.7491 H         1 <0>         0.0701
     46 H15         5.9392   -3.6326   -4.6680 H         1 <0>         0.0648
     47 H16         8.4790   -4.9149   -8.0584 H         1 <0>         0.1089
     48 H17         8.9165   -6.9736   -5.8444 H         1 <0>         0.0819
     49 H18         7.5980   -6.9648   -7.0409 H         1 <0>         0.0858
     50 H19         9.3745   -8.5425   -7.7223 H         1 <0>         0.0769
     51 H20         9.2724   -7.1852   -8.8688 H         1 <0>         0.0712
     52 H21        11.2511   -7.3973   -6.5540 H         1 <0>         0.0691
     53 H22        11.6323   -7.6971   -8.2673 H         1 <0>         0.0843
     54 H23        12.2407   -5.3715   -7.5098 H         1 <0>         0.1351
     55 H24        11.0575   -5.3852   -8.8429 H         1 <0>         0.0773
     56 H25        12.1587   -2.8207   -4.0995 H         1 <0>         0.1090
     57 H26        12.8795   -0.9316   -6.3861 H         1 <0>         0.0679
     58 H27        11.3072   -1.0025   -5.5548 H         1 <0>         0.0726
     59 H28        12.7169    0.8202   -4.6387 H         1 <0>         0.0685
     60 H29        12.4151   -0.4327   -3.4108 H         1 <0>         0.0671
     61 H30        14.9193   -0.2027   -5.1409 H         1 <0>         0.0637
     62 H31        14.8001    0.2457   -3.4225 H         1 <0>         0.0653
     63 H32        15.7707   -2.0209   -3.6856 H         1 <0>         0.0683
     64 H33        14.1984   -2.0918   -2.8543 H         1 <0>         0.0650
     65 H34        14.3610   -3.8435   -4.6018 H         1 <0>         0.0662
     66 H35        14.6628   -2.5906   -5.8296 H         1 <0>         0.0751
@<TRIPOS>BOND
     1    1    2 1
     2    1   32 1
     3    1   33 1
     4    1   34 1
     5    2    3 1
     6    3    8 ar
     7    3    4 ar
     8    4    5 ar
     9    4   35 1
    10    5    6 ar
    11    5   36 1
    12    6    7 ar
    13    6    9 1
    14    7    8 ar
    15    7   37 1
    16    8   38 1
    17    9   10 1
    18    9   39 1
    19    9   40 1
    20   10   11 1
    21   10   41 1
    22   10   42 1
    23   11   12 1
    24   11   43 1
    25   11   44 1
    26   12   13 1
    27   12   45 1
    28   12   46 1
    29   13   14 1
    30   14   15 2
    31   14   16 1
    32   16   21 1
    33   16   17 1
    34   16   47 1
    35   17   18 1
    36   17   48 1
    37   17   49 1
    38   18   19 1
    39   18   50 1
    40   18   51 1
    41   19   20 1
    42   19   52 1
    43   19   53 1
    44   20   21 1
    45   20   54 1
    46   20   55 1
    47   21   22 am
    48   22   23 2
    49   22   24 1
    50   24   25 2
    51   24   26 1
    52   26   31 1
    53   26   27 1
    54   26   56 1
    55   27   28 1
    56   27   57 1
    57   27   58 1
    58   28   29 1
    59   28   59 1
    60   28   60 1
    61   29   30 1
    62   29   61 1
    63   29   62 1
    64   30   31 1
    65   30   63 1
    66   30   64 1
    67   31   65 1
    68   31   66 1
@<TRIPOS>MOLECULE
CHEMBL146203__1
   66    68     0     0     0
SMALL
USER_CHARGES

@<TRIPOS>ATOM
      1 C1          1.3070    3.5001   -1.0779 C.3       1 <0>         0.0269
      2 O1          1.7823    2.3561   -0.3655 O.3       1 <0>        -0.3186
      3 C2          2.1322    1.2706   -1.1044 C.ar      1 <0>         0.1225
      4 C3          2.0258    1.3077   -2.4872 C.ar      1 <0>        -0.2061
      5 C4          2.3826    0.2031   -3.2361 C.ar      1 <0>        -0.0766
      6 C5          2.8450   -0.9389   -2.6087 C.ar      1 <0>        -0.1205
      7 C6          2.9515   -0.9786   -1.2308 C.ar      1 <0>        -0.0766
      8 C7          2.6018    0.1255   -0.4777 C.ar      1 <0>        -0.1495
      9 C8          3.2330   -2.1427   -3.4282 C.3       1 <0>        -0.0738
     10 C9          4.7154   -2.0528   -3.7961 C.3       1 <0>        -0.1115
     11 C10         5.1094   -3.2749   -4.6281 C.3       1 <0>        -0.1181
     12 C11         6.5918   -3.1851   -4.9960 C.3       1 <0>         0.0708
     13 O2          6.9597   -4.3265   -5.7730 O.3       1 <0>        -0.3526
     14 C12         8.2368   -4.4010   -6.1795 C.2       1 <0>         0.4676
     15 O3          9.0165   -3.5261   -5.8853 O.2       1 <0>        -0.4730
     16 C13         8.6982   -5.5759   -7.0028 C.3       1 <0>         0.1547
     17 C14         8.9587   -5.1232   -8.4429 C.3       1 <0>        -0.1244
     18 C15         9.5581   -6.2853   -9.2382 C.3       1 <0>        -0.1187
     19 C16        10.8924   -6.6988   -8.6130 C.3       1 <0>        -0.1352
     20 C17        10.6539   -7.1694   -7.1748 C.3       1 <0>         0.0903
     21 N1          9.9466   -6.1104   -6.4420 N.am      1 <0>        -0.5884
     22 C18        10.4337   -5.6383   -5.2774 C.2       1 <0>         0.4726
     23 O4          9.7672   -4.8802   -4.6036 O.2       1 <0>        -0.4762
     24 C19        11.7914   -6.0473   -4.8168 C.2       1 <0>         0.3643
     25 O5         12.6412   -6.3375   -5.6246 O.2       1 <0>        -0.4090
     26 C20        12.1035   -6.0987   -3.3433 C.3       1 <0>        -0.1158
     27 C21        12.5196   -4.7074   -2.8614 C.3       1 <0>        -0.1067
     28 C22        12.8364   -4.7596   -1.3655 C.3       1 <0>        -0.1161
     29 C23        13.9791   -5.7471   -1.1203 C.3       1 <0>        -0.1237
     30 C24        13.5630   -7.1383   -1.6023 C.3       1 <0>        -0.1182
     31 C25        13.2462   -7.0862   -3.0982 C.3       1 <0>        -0.1091
     32 H1          2.0801    3.8488   -1.7626 H         1 <0>         0.0556
     33 H2          0.4150    3.2310   -1.6436 H         1 <0>         0.0556
     34 H3          1.0633    4.2931   -0.3708 H         1 <0>         0.1009
     35 H4          1.6641    2.1993   -2.9776 H         1 <0>         0.1275
     36 H5          2.3000    0.2315   -4.3126 H         1 <0>         0.1242
     37 H6          3.3126   -1.8720   -0.7430 H         1 <0>         0.1292
     38 H7          2.6894    0.0955    0.5983 H         1 <0>         0.1306
     39 H8          3.0568   -3.0489   -2.8487 H         1 <0>         0.0740
     40 H9          2.6339   -2.1711   -4.3383 H         1 <0>         0.0730
     41 H10         4.8917   -1.1466   -4.3756 H         1 <0>         0.0668
     42 H11         5.3146   -2.0244   -2.8860 H         1 <0>         0.0682
     43 H12         4.9331   -4.1811   -4.0485 H         1 <0>         0.0749
     44 H13         4.5102   -3.3034   -5.5382 H         1 <0>         0.0741
     45 H14         6.7680   -2.2789   -5.5755 H         1 <0>         0.0644
     46 H15         7.1909   -3.1566   -4.0859 H         1 <0>         0.0705
     47 H16         7.9323   -6.3514   -6.9942 H         1 <0>         0.1101
     48 H17         8.0199   -4.8139   -8.9024 H         1 <0>         0.0877
     49 H18         9.6564   -4.2858   -8.4404 H         1 <0>         0.0796
     50 H19         8.8707   -7.1310   -9.2194 H         1 <0>         0.0715
     51 H20         9.7216   -5.9732  -10.2697 H         1 <0>         0.0777
     52 H21        11.3300   -7.5109   -9.1937 H         1 <0>         0.0837
     53 H22        11.5720   -5.8466   -8.6090 H         1 <0>         0.0726
     54 H23        10.0481   -8.0756   -7.1826 H         1 <0>         0.0756
     55 H24        11.6105   -7.3710   -6.6929 H         1 <0>         0.1141
     56 H25        11.2188   -6.4234   -2.7957 H         1 <0>         0.1035
     57 H26        13.4043   -4.3827   -3.4091 H         1 <0>         0.0671
     58 H27        11.7055   -4.0039   -3.0360 H         1 <0>         0.0787
     59 H28        13.1328   -3.7684   -1.0221 H         1 <0>         0.0686
     60 H29        11.9518   -5.0843   -0.8178 H         1 <0>         0.0661
     61 H30        14.8638   -5.4223   -1.6680 H         1 <0>         0.0636
     62 H31        14.2048   -5.7842   -0.0546 H         1 <0>         0.0651
     63 H32        14.3771   -7.8418   -1.4276 H         1 <0>         0.0681
     64 H33        12.6783   -7.4630   -1.0546 H         1 <0>         0.0645
     65 H34        12.9498   -8.0773   -3.4415 H         1 <0>         0.0660
     66 H35        14.1308   -6.7614   -3.6459 H         1 <0>         0.0752
@<TRIPOS>BOND
     1    1    2 1
     2    1   32 1
     3    1   33 1
     4    1   34 1
     5    2    3 1
     6    3    8 ar
     7    3    4 ar
     8    4    5 ar
     9    4   35 1
    10    5    6 ar
    11    5   36 1
    12    6    7 ar
    13    6    9 1
    14    7    8 ar
    15    7   37 1
    16    8   38 1
    17    9   10 1
    18    9   39 1
    19    9   40 1
    20   10   11 1
    21   10   41 1
    22   10   42 1
    23   11   12 1
    24   11   43 1
    25   11   44 1
    26   12   13 1
    27   12   45 1
    28   12   46 1
    29   13   14 1
    30   14   15 2
    31   14   16 1
    32   16   21 1
    33   16   17 1
    34   16   47 1
    35   17   18 1
    36   17   48 1
    37   17   49 1
    38   18   19 1
    39   18   50 1
    40   18   51 1
    41   19   20 1
    42   19   52 1
    43   19   53 1
    44   20   21 1
    45   20   54 1
    46   20   55 1
    47   21   22 am
    48   22   23 2
    49   22   24 1
    50   24   25 2
    51   24   26 1
    52   26   31 1
    53   26   27 1
    54   26   56 1
    55   27   28 1
    56   27   57 1
    57   27   58 1
    58   28   29 1
    59   28   59 1
    60   28   60 1
    61   29   30 1
    62   29   61 1
    63   29   62 1
    64   30   31 1
    65   30   63 1
    66   30   64 1
    67   31   65 1
    68   31   66 1
@<TRIPOS>MOLECULE
CHEMBL287350
   86    88     0     0     0
SMALL
USER_CHARGES

@<TRIPOS>ATOM
      1 C1         -0.2872    1.7168    0.1345 C.3       1 <0>        -0.1489
      2 C2         -0.1920    0.2136   -0.1346 C.3       1 <0>        -0.1077
      3 H1          0.3006    0.0455   -1.0922 H         1 <0>         0.1276
      4 C3         -1.5993   -0.3902   -0.1698 C.3       1 <0>        -0.1125
      5 C4         -1.4880   -1.9058   -0.3619 C.3       1 <0>        -0.1567
      6 C5         -0.6316   -2.4934    0.7629 C.3       1 <0>         0.0654
      7 O1          0.6527   -1.8668    0.7589 O.3       1 <0>        -0.3731
      8 C6          0.6156   -0.4555    0.9807 C.3       1 <0>         0.2716
      9 C7          2.0198    0.0915    0.9819 C.2       1 <0>         0.3616
     10 O2          2.4798    0.5720    1.9901 O.2       1 <0>        -0.3954
     11 C8          2.8412    0.0396   -0.2612 C.2       1 <0>         0.4617
     12 O3          2.3403   -0.3255   -1.3047 O.2       1 <0>        -0.4198
     13 N1          4.1399    0.3981   -0.2263 N.am      1 <0>        -0.5917
     14 C9          4.6638    1.2064    0.8833 C.3       1 <0>         0.0677
     15 C10         5.8748    0.4885    1.4873 C.3       1 <0>        -0.1355
     16 C11         6.8948    0.2002    0.3834 C.3       1 <0>        -0.1193
     17 C12         6.2653   -0.7160   -0.6685 C.3       1 <0>        -0.1220
     18 C13         5.0601   -0.0170   -1.2938 C.3       1 <0>         0.1590
     19 H2          5.3965    0.8596   -1.8475 H         1 <0>         0.1112
     20 C14         4.3553   -0.9676   -2.2269 C.2       1 <0>         0.4307
     21 O4          3.4391   -1.6433   -1.8222 O.2       1 <0>        -0.4307
     22 O5          4.7454   -1.0637   -3.5077 O.3       1 <0>        -0.3412
     23 C15         4.0328   -1.9849   -4.3356 C.3       1 <0>         0.1350
     24 H3          3.6660   -2.8116   -3.7271 H         1 <0>         0.0856
     25 C16         2.8497   -1.2707   -4.9922 C.3       1 <0>        -0.1331
     26 C17         1.8525   -0.8397   -3.9149 C.3       1 <0>        -0.1159
     27 C18         0.6694   -0.1255   -4.5715 C.3       1 <0>        -0.0928
     28 C19        -0.3128    0.2991   -3.5104 C.2       1 <0>        -0.1394
     29 C20        -0.6803    1.5534   -3.4222 C.2       1 <0>        -0.2037
     30 C21         4.9537   -2.5170   -5.4032 C.2       1 <0>        -0.1212
     31 C22         5.1177   -3.8093   -5.5422 C.2       1 <0>        -0.1336
     32 C23         5.9580   -4.3449   -6.6728 C.3       1 <0>        -0.0614
     33 H4          6.4194   -3.5146   -7.2075 H         1 <0>         0.0877
     34 C24         5.0726   -5.1412   -7.6334 C.3       1 <0>        -0.1105
     35 C25         5.9257   -5.6849   -8.7812 C.3       1 <0>        -0.1507
     36 C26         7.0166   -6.5978   -8.2178 C.3       1 <0>         0.0834
     37 H5          6.5552   -7.4280   -7.6830 H         1 <0>         0.0624
     38 C27         7.9020   -5.8015   -7.2571 C.3       1 <0>         0.1004
     39 H6          8.3634   -4.9713   -7.7918 H         1 <0>         0.0657
     40 C28         7.0489   -5.2578   -6.1093 C.3       1 <0>        -0.1055
     41 O6          8.9209   -6.6541   -6.7308 O.3       1 <0>        -0.3820
     42 C29        10.1194   -6.6761   -7.5087 C.3       1 <0>         0.0308
     43 O7          7.8134   -7.1057   -9.2898 O.3       1 <0>        -0.5648
     44 C30         5.6860   -1.5626   -6.3109 C.3       1 <0>        -0.1171
     45 O8         -0.0012   -0.1886    2.2417 O.3       1 <0>        -0.5449
     46 H7          0.7147    2.1452    0.1616 H         1 <0>         0.0456
     47 H8         -0.8642    2.1920   -0.6588 H         1 <0>         0.0676
     48 H9         -0.7799    1.8840    1.0923 H         1 <0>         0.0686
     49 H10        -2.1107   -0.1783    0.7692 H         1 <0>         0.0736
     50 H11        -2.1609    0.0420   -0.9980 H         1 <0>         0.0723
     51 H12        -2.4826   -2.3507   -0.3328 H         1 <0>         0.0775
     52 H13        -1.0211   -2.1178   -1.3238 H         1 <0>         0.0745
     53 H14        -1.1194   -2.3164    1.7215 H         1 <0>         0.0607
     54 H15        -0.5135   -3.5657    0.6075 H         1 <0>         0.0990
     55 H16         4.9672    2.1849    0.5111 H         1 <0>         0.0720
     56 H17         3.8926    1.3256    1.6443 H         1 <0>         0.1387
     57 H18         6.3312    1.1220    2.2479 H         1 <0>         0.0817
     58 H19         5.5533   -0.4497    1.9396 H         1 <0>         0.0681
     59 H20         7.1973    1.1368   -0.0851 H         1 <0>         0.0707
     60 H21         7.7684   -0.2886    0.8148 H         1 <0>         0.0758
     61 H22         6.9997   -0.9398   -1.4423 H         1 <0>         0.0896
     62 H23         5.9402   -1.6428   -0.1959 H         1 <0>         0.0751
     63 H24         3.2079   -0.3919   -5.5283 H         1 <0>         0.0702
     64 H25         2.3591   -1.9479   -5.6914 H         1 <0>         0.0757
     65 H26         1.4943   -1.7185   -3.3788 H         1 <0>         0.0694
     66 H27         2.3431   -0.1625   -3.2157 H         1 <0>         0.0862
     67 H28         1.0276    0.7534   -5.1076 H         1 <0>         0.0600
     68 H29         0.1788   -0.8026   -5.2707 H         1 <0>         0.0656
     69 H30        -0.7138   -0.4307   -2.8226 H         1 <0>         0.1079
     70 H31        -1.3843    1.8577   -2.6617 H         1 <0>         0.0941
     71 H32        -0.2794    2.2832   -4.1100 H         1 <0>         0.0923
     72 H33         4.6507   -4.4908   -4.8466 H         1 <0>         0.1129
     73 H34         4.6112   -5.9714   -7.0987 H         1 <0>         0.0682
     74 H35         4.2954   -4.4908   -8.0349 H         1 <0>         0.0709
     75 H36         5.2949   -6.2522   -9.4656 H         1 <0>         0.0706
     76 H37         6.3871   -4.8547   -9.3160 H         1 <0>         0.0719
     77 H38         7.6797   -4.6905   -5.4249 H         1 <0>         0.0778
     78 H39         6.5875   -6.0880   -5.5746 H         1 <0>         0.0750
     79 H40        10.8425   -7.3459   -7.0431 H         1 <0>         0.0810
     80 H41         9.8931   -7.0287   -8.5149 H         1 <0>         0.0600
     81 H42        10.5369   -5.6706   -7.5613 H         1 <0>         0.0360
     82 H43         7.3163   -7.6221   -9.9389 H         1 <0>         0.3774
     83 H44         6.6866   -1.3828   -5.9178 H         1 <0>         0.0709
     84 H45         5.7598   -1.9947   -7.3089 H         1 <0>         0.0677
     85 H46         5.1411   -0.6200   -6.3625 H         1 <0>         0.0645
     86 H47         0.4582   -0.5831    2.9956 H         1 <0>         0.3863
@<TRIPOS>BOND
     1    1    2 1
     2    1   46 1
     3    1   47 1
     4    1   48 1
     5    2    3 1
     6    2    8 1
     7    2    4 1
     8    4    5 1
     9    4   49 1
    10    4   50 1
    11    5    6 1
    12    5   51 1
    13    5   52 1
    14    6    7 1
    15    6   53 1
    16    6   54 1
    17    7    8 1
    18    8    9 1
    19    8   45 1
    20    9   10 2
    21    9   11 1
    22   11   12 2
    23   11   13 am
    24   13   18 1
    25   13   14 1
    26   14   15 1
    27   14   55 1
    28   14   56 1
    29   15   16 1
    30   15   57 1
    31   15   58 1
    32   16   17 1
    33   16   59 1
    34   16   60 1
    35   17   18 1
    36   17   61 1
    37   17   62 1
    38   18   19 1
    39   18   20 1
    40   20   21 2
    41   20   22 1
    42   22   23 1
    43   23   24 1
    44   23   25 1
    45   23   30 1
    46   25   26 1
    47   25   63 1
    48   25   64 1
    49   26   27 1
    50   26   65 1
    51   26   66 1
    52   27   28 1
    53   27   67 1
    54   27   68 1
    55   28   29 2
    56   28   69 1
    57   29   70 1
    58   29   71 1
    59   30   31 2
    60   30   44 1
    61   31   32 1
    62   31   72 1
    63   32   33 1
    64   32   40 1
    65   32   34 1
    66   34   35 1
    67   34   73 1
    68   34   74 1
    69   35   36 1
    70   35   75 1
    71   35   76 1
    72   36   37 1
    73   36   38 1
    74   36   43 1
    75   38   39 1
    76   38   40 1
    77   38   41 1
    78   40   77 1
    79   40   78 1
    80   41   42 1
    81   42   79 1
    82   42   80 1
    83   42   81 1
    84   43   82 1
    85   44   83 1
    86   44   84 1
    87   44   85 1
    88   45   86 1
@<TRIPOS>MOLECULE
CHEMBL201359
   67    72     0     0     0
SMALL
USER_CHARGES

@<TRIPOS>ATOM
      1 C1         -0.0173    1.4248    0.0099 C.3       1 <0>         0.0252
      2 O1          0.0021   -0.0041    0.0020 O.3       1 <0>        -0.3101
      3 C2          0.6253   -0.6179    1.0407 C.ar      1 <0>         0.1793
      4 C3          0.6540   -2.0040    1.1194 C.ar      1 <0>        -0.1791
      5 C4          1.3265   -2.6162    2.1522 C.ar      1 <0>         0.0021
      6 C5          2.0039   -1.8703    3.1102 C.ar      1 <0>        -0.1669
      7 C6          1.8737   -0.4951    3.0956 C.ar      1 <0>         0.1912
      8 C7          1.2070    0.1324    2.0477 C.ar      1 <0>        -0.3051
      9 O2          2.3214    0.2794    4.1198 O.3       1 <0>        -0.3097
     10 C8          2.1332    1.6905    3.9964 C.3       1 <0>         0.0227
     11 C9          2.8725   -2.6129    4.0860 C.3       1 <0>         0.2031
     12 C10         3.9297   -1.7173    4.7113 C.3       1 <0>         0.1555
     13 C11         4.7447   -0.9448    3.6860 C.3       1 <0>        -0.1171
     14 C12         5.6566   -1.8599    2.8716 C.3       1 <0>        -0.1289
     15 C13         6.5612   -2.6646    3.8100 C.3       1 <0>        -0.1221
     16 C14         5.6457   -3.5186    4.7115 C.3       1 <0>         0.1448
     17 N1          4.8418   -2.5687    5.5073 N.pl3     1 <0>        -1.0019
     18 S1          4.9474   -2.4592    7.1554 S.o2      1 <0>         2.6910
     19 O3          6.2297   -2.9556    7.5141 O.2       1 <0>        -0.9448
     20 O4          4.5114   -1.1525    7.5043 O.2       1 <0>        -0.9431
     21 C15         3.7668   -3.5805    7.8287 C.ar      1 <0>        -0.6781
     22 C16         2.4762   -3.1523    8.0820 C.ar      1 <0>        -0.0142
     23 C17         1.5474   -4.0264    8.6094 C.ar      1 <0>        -0.1274
     24 C18         1.9117   -5.3425    8.8863 C.ar      1 <0>         0.0114
     25 C19         3.2131   -5.7686    8.6288 C.ar      1 <0>        -0.1272
     26 C20         4.1325   -4.8873    8.0968 C.ar      1 <0>        -0.0122
     27 C21         0.9176   -6.2867    9.4538 C.ar      1 <0>        -0.0434
     28 C22        -0.3854   -5.8615    9.7064 C.ar      1 <0>        -0.0866
     29 C23        -1.3067   -6.7427   10.2342 C.ar      1 <0>        -0.0953
     30 C24        -0.9390   -8.0479   10.5132 C.ar      1 <0>        -0.0247
     31 C25         0.3548   -8.4759   10.2641 C.ar      1 <0>        -0.0298
     32 C26         1.2824   -7.6024    9.7305 C.ar      1 <0>        -0.0835
     33 Cl1         0.8090  -10.1140   10.6164 Cl        1 <0>        -0.0390
     34 Cl2        -2.1027   -9.1515   11.1777 Cl        1 <0>        -0.0401
     35 C27         4.6986   -4.2498    3.7965 C.2       1 <0>         0.5145
     36 O5          5.0677   -5.2968    3.3059 O.2       1 <0>        -0.5339
     37 N2          3.4629   -3.8071    3.4898 N.am      1 <0>        -0.5929
     38 C28         2.7337   -4.6201    2.5054 C.3       1 <0>         0.1186
     39 C29         1.3138   -4.1157    2.2958 C.3       1 <0>        -0.0929
     40 H1          1.0053    1.8021    0.0021 H         1 <0>         0.0572
     41 H2         -0.5445    1.7859   -0.8732 H         1 <0>         0.1044
     42 H3         -0.5275    1.7763    0.9067 H         1 <0>         0.0571
     43 H4          0.1517   -2.6012    0.3720 H         1 <0>         0.1372
     44 H5          1.1469    1.2110    2.0222 H         1 <0>         0.1401
     45 H6          1.0690    1.9088    3.9078 H         1 <0>         0.0578
     46 H7          2.5340    2.1891    4.8790 H         1 <0>         0.1075
     47 H8          2.6531    2.0502    3.1085 H         1 <0>         0.0575
     48 H9          2.2191   -2.9561    4.9031 H         1 <0>         0.0758
     49 H10         3.4497   -1.0202    5.4030 H         1 <0>         0.1295
     50 H11         4.0898   -0.4124    2.9986 H         1 <0>         0.0817
     51 H12         5.3653   -0.2087    4.2082 H         1 <0>         0.0753
     52 H13         5.0551   -2.5354    2.2666 H         1 <0>         0.0681
     53 H14         6.2782   -1.2503    2.2114 H         1 <0>         0.0729
     54 H15         7.2150   -3.3134    3.2280 H         1 <0>         0.0879
     55 H16         7.1563   -1.9886    4.4219 H         1 <0>         0.0880
     56 H17         6.2153   -4.2008    5.3392 H         1 <0>         0.1415
     57 H18         2.1948   -2.1320    7.8670 H         1 <0>         0.1444
     58 H19         0.5401   -3.6908    8.8074 H         1 <0>         0.1385
     59 H20         3.5009   -6.7876    8.8415 H         1 <0>         0.1380
     60 H21         5.1404   -5.2176    7.8930 H         1 <0>         0.1441
     61 H22        -0.6735   -4.8435    9.4895 H         1 <0>         0.1448
     62 H23        -2.3164   -6.4135   10.4304 H         1 <0>         0.1491
     63 H24         2.2897   -7.9377    9.5323 H         1 <0>         0.1482
     64 H25         3.2677   -4.5940    1.5553 H         1 <0>         0.0727
     65 H26         2.6957   -5.6526    2.8579 H         1 <0>         0.0821
     66 H27         0.6974   -4.3903    3.1534 H         1 <0>         0.0908
     67 H28         0.8949   -4.5631    1.3942 H         1 <0>         0.0985
@<TRIPOS>BOND
     1    1    2 1
     2    1   40 1
     3    1   41 1
     4    1   42 1
     5    2    3 1
     6    3    8 ar
     7    3    4 ar
     8    4    5 ar
     9    4   43 1
    10    5   39 1
    11    5    6 ar
    12    6    7 ar
    13    6   11 1
    14    7    8 ar
    15    7    9 1
    16    8   44 1
    17    9   10 1
    18   10   45 1
    19   10   46 1
    20   10   47 1
    21   11   37 1
    22   11   12 1
    23   11   48 1
    24   12   17 1
    25   12   13 1
    26   12   49 1
    27   13   14 1
    28   13   50 1
    29   13   51 1
    30   14   15 1
    31   14   52 1
    32   14   53 1
    33   15   16 1
    34   15   54 1
    35   15   55 1
    36   16   17 1
    37   16   35 1
    38   16   56 1
    39   17   18 1
    40   18   19 2
    41   18   20 2
    42   18   21 1
    43   21   26 ar
    44   21   22 ar
    45   22   23 ar
    46   22   57 1
    47   23   24 ar
    48   23   58 1
    49   24   25 ar
    50   24   27 1
    51   25   26 ar
    52   25   59 1
    53   26   60 1
    54   27   32 ar
    55   27   28 ar
    56   28   29 ar
    57   28   61 1
    58   29   30 ar
    59   29   62 1
    60   30   31 ar
    61   30   34 1
    62   31   32 ar
    63   31   33 1
    64   32   63 1
    65   35   36 2
    66   35   37 am
    67   37   38 1
    68   38   39 1
    69   38   64 1
    70   38   65 1
    71   39   66 1
    72   39   67 1
@<TRIPOS>MOLECULE
CHEMBL201359__1
   67    72     0     0     0
SMALL
USER_CHARGES

@<TRIPOS>ATOM
      1 C1         -0.0173    1.4248    0.0099 C.3       1 <0>         0.0255
      2 O1          0.0021   -0.0041    0.0020 O.3       1 <0>        -0.3119
      3 C2          0.6258   -0.6184    1.0415 C.ar      1 <0>         0.1739
      4 C3          0.6874   -2.0009    1.0953 C.ar      1 <0>        -0.1879
      5 C4          1.3184   -2.6404    2.1538 C.ar      1 <0>         0.0084
      6 C5          1.8816   -1.8895    3.1632 C.ar      1 <0>        -0.1697
      7 C6          1.8289   -0.4992    3.1082 C.ar      1 <0>         0.1831
      8 C7          1.2070    0.1372    2.0479 C.ar      1 <0>        -0.2906
      9 O2          2.3962    0.2377    4.0991 O.3       1 <0>        -0.3058
     10 C8          2.3072    1.6591    3.9827 C.3       1 <0>         0.0168
     11 C9          2.5478   -2.5308    4.3506 C.3       1 <0>         0.2012
     12 C10         3.7954   -1.7651    4.7545 C.3       1 <0>         0.1290
     13 C11         3.8905   -1.7132    6.2850 C.3       1 <0>        -0.1259
     14 C12         4.0132   -3.1385    6.8287 C.3       1 <0>        -0.1277
     15 C13         5.2676   -3.8036    6.2585 C.3       1 <0>        -0.1245
     16 C14         5.1697   -3.8450    4.7289 C.3       1 <0>         0.1382
     17 N1          4.9931   -2.4576    4.2470 N.pl3     1 <0>        -0.9933
     18 S1          6.0640   -1.7347    3.2111 S.o2      1 <0>         2.6879
     19 O3          6.7245   -2.7820    2.5138 O.2       1 <0>        -0.9481
     20 O4          5.3492   -0.7056    2.5409 O.2       1 <0>        -0.9412
     21 C15         7.2867   -0.9378    4.1984 C.ar      1 <0>        -0.6744
     22 C16         7.0999    0.3718    4.6024 C.ar      1 <0>        -0.0129
     23 C17         8.0543    1.0009    5.3758 C.ar      1 <0>        -0.1276
     24 C18         9.2075    0.3141    5.7500 C.ar      1 <0>         0.0107
     25 C19         9.3903   -1.0052    5.3407 C.ar      1 <0>        -0.1273
     26 C20         8.4271   -1.6261    4.5715 C.ar      1 <0>        -0.0141
     27 C21        10.2374    0.9854    6.5811 C.ar      1 <0>        -0.0435
     28 C22        10.0517    2.3033    6.9947 C.ar      1 <0>        -0.0868
     29 C23        11.0119    2.9238    7.7673 C.ar      1 <0>        -0.0953
     30 C24        12.1588    2.2397    8.1322 C.ar      1 <0>        -0.0248
     31 C25        12.3485    0.9296    7.7239 C.ar      1 <0>        -0.0299
     32 C26        11.3901    0.2983    6.9550 C.ar      1 <0>        -0.0838
     33 Cl1        13.7891    0.0778    8.1851 Cl        1 <0>        -0.0388
     34 Cl2        13.3633    3.0262    9.1039 Cl        1 <0>        -0.0398
     35 C27         3.9177   -4.5943    4.3396 C.2       1 <0>         0.5266
     36 O5          3.9531   -5.8022    4.2361 O.2       1 <0>        -0.5318
     37 N2          2.7676   -3.9458    4.1071 N.am      1 <0>        -0.5936
     38 C28         1.6356   -4.7048    3.5334 C.3       1 <0>         0.1036
     39 C29         1.3622   -4.1455    2.1383 C.3       1 <0>        -0.1005
     40 H1          1.0053    1.8021    0.0021 H         1 <0>         0.0570
     41 H2         -0.5445    1.7859   -0.8732 H         1 <0>         0.1032
     42 H3         -0.5275    1.7763    0.9067 H         1 <0>         0.0560
     43 H4          0.2400   -2.5873    0.3064 H         1 <0>         0.1345
     44 H5          1.1713    1.2158    2.0070 H         1 <0>         0.1389
     45 H6          1.2589    1.9569    3.9597 H         1 <0>         0.0583
     46 H7          2.7987    2.1251    4.8368 H         1 <0>         0.1038
     47 H8          2.7962    1.9796    3.0628 H         1 <0>         0.0614
     48 H9          1.8513   -2.4544    5.1856 H         1 <0>         0.0880
     49 H10         3.7546   -0.7557    4.3454 H         1 <0>         0.1529
     50 H11         4.7676   -1.1354    6.5761 H         1 <0>         0.0763
     51 H12         2.9935   -1.2448    6.6900 H         1 <0>         0.0839
     52 H13         4.0822   -3.1069    7.9161 H         1 <0>         0.0752
     53 H14         3.1342   -3.7140    6.5387 H         1 <0>         0.0681
     54 H15         6.1478   -3.2312    6.5513 H         1 <0>         0.0831
     55 H16         5.3485   -4.8194    6.6455 H         1 <0>         0.0874
     56 H17         6.0604   -4.2986    4.2940 H         1 <0>         0.1385
     57 H18         6.2057    0.9032    4.3117 H         1 <0>         0.1428
     58 H19         7.9078    2.0238    5.6900 H         1 <0>         0.1382
     59 H20        10.2822   -1.5421    5.6279 H         1 <0>         0.1382
     60 H21         8.5658   -2.6499    4.2570 H         1 <0>         0.1442
     61 H22         9.1576    2.8383    6.7105 H         1 <0>         0.1447
     62 H23        10.8686    3.9452    8.0877 H         1 <0>         0.1491
     63 H24        11.5363   -0.7245    6.6406 H         1 <0>         0.1483
     64 H25         1.8962   -5.7609    3.4637 H         1 <0>         0.1088
     65 H26         0.7525   -4.5818    4.1604 H         1 <0>         0.0807
     66 H27         0.4056   -4.5271    1.7816 H         1 <0>         0.0967
     67 H28         2.1512   -4.4730    1.4612 H         1 <0>         0.0886
@<TRIPOS>BOND
     1    1    2 1
     2    1   40 1
     3    1   41 1
     4    1   42 1
     5    2    3 1
     6    3    8 ar
     7    3    4 ar
     8    4    5 ar
     9    4   43 1
    10    5   39 1
    11    5    6 ar
    12    6    7 ar
    13    6   11 1
    14    7    8 ar
    15    7    9 1
    16    8   44 1
    17    9   10 1
    18   10   45 1
    19   10   46 1
    20   10   47 1
    21   11   37 1
    22   11   12 1
    23   11   48 1
    24   12   17 1
    25   12   13 1
    26   12   49 1
    27   13   14 1
    28   13   50 1
    29   13   51 1
    30   14   15 1
    31   14   52 1
    32   14   53 1
    33   15   16 1
    34   15   54 1
    35   15   55 1
    36   16   17 1
    37   16   35 1
    38   16   56 1
    39   17   18 1
    40   18   19 2
    41   18   20 2
    42   18   21 1
    43   21   26 ar
    44   21   22 ar
    45   22   23 ar
    46   22   57 1
    47   23   24 ar
    48   23   58 1
    49   24   25 ar
    50   24   27 1
    51   25   26 ar
    52   25   59 1
    53   26   60 1
    54   27   32 ar
    55   27   28 ar
    56   28   29 ar
    57   28   61 1
    58   29   30 ar
    59   29   62 1
    60   30   31 ar
    61   30   34 1
    62   31   32 ar
    63   31   33 1
    64   32   63 1
    65   35   36 2
    66   35   37 am
    67   37   38 1
    68   38   39 1
    69   38   64 1
    70   38   65 1
    71   39   66 1
    72   39   67 1
@<TRIPOS>MOLECULE
CHEMBL201359__2
   67    72     0     0     0
SMALL
USER_CHARGES

@<TRIPOS>ATOM
      1 C1         -0.0173    1.4248    0.0099 C.3       1 <0>         0.0244
      2 O1          0.0021   -0.0041    0.0020 O.3       1 <0>        -0.3112
      3 C2          0.6258   -0.6184    1.0415 C.ar      1 <0>         0.1743
      4 C3          0.6876   -2.0009    1.0956 C.ar      1 <0>        -0.1853
      5 C4          1.3243   -2.6403    2.1507 C.ar      1 <0>         0.0152
      6 C5          1.9060   -1.8892    3.1494 C.ar      1 <0>        -0.1685
      7 C6          1.8396   -0.4992    3.1023 C.ar      1 <0>         0.1707
      8 C7          1.2071    0.1369    2.0480 C.ar      1 <0>        -0.2955
      9 O2          2.4040    0.2378    4.0949 O.3       1 <0>        -0.3038
     10 C8          2.3007    1.6589    3.9867 C.3       1 <0>         0.0184
     11 C9          2.6363   -2.5288    4.2994 C.3       1 <0>         0.1959
     12 C10         2.3487   -1.7994    5.5999 C.3       1 <0>         0.1306
     13 C11         3.6340   -1.7144    6.4335 C.3       1 <0>        -0.1229
     14 C12         4.1033   -3.1296    6.7784 C.3       1 <0>        -0.1289
     15 C13         3.0189   -3.8536    7.5790 C.3       1 <0>        -0.1218
     16 C14         1.7353   -3.9278    6.7439 C.3       1 <0>         0.1388
     17 N1          1.3478   -2.5467    6.3817 N.pl3     1 <0>        -0.9929
     18 S1         -0.1059   -1.8879    6.8234 S.o2      1 <0>         2.6887
     19 O3         -0.5443   -2.6034    7.9702 O.2       1 <0>        -0.9480
     20 O4          0.0715   -0.4780    6.8269 O.2       1 <0>        -0.9449
     21 C15        -1.2538   -2.2479    5.5360 C.ar      1 <0>        -0.6742
     22 C16        -1.4020   -1.3680    4.4790 C.ar      1 <0>        -0.0057
     23 C17        -2.2996   -1.6450    3.4679 C.ar      1 <0>        -0.1217
     24 C18        -3.0570   -2.8138    3.5129 C.ar      1 <0>         0.0127
     25 C19        -2.9033   -3.6968    4.5798 C.ar      1 <0>        -0.1273
     26 C20        -1.9992   -3.4121    5.5831 C.ar      1 <0>        -0.0125
     27 C21        -4.0240   -3.1167    2.4290 C.ar      1 <0>        -0.0415
     28 C22        -4.1736   -2.2358    1.3594 C.ar      1 <0>        -0.0847
     29 C23        -5.0740   -2.5212    0.3536 C.ar      1 <0>        -0.0947
     30 C24        -5.8286   -3.6807    0.4051 C.ar      1 <0>        -0.0248
     31 C25        -5.6839   -4.5599    1.4659 C.ar      1 <0>        -0.0296
     32 C26        -4.7810   -4.2853    2.4744 C.ar      1 <0>        -0.0840
     33 Cl1        -6.6335   -6.0120    1.5240 Cl        1 <0>        -0.0397
     34 Cl2        -6.9601   -4.0338   -0.8633 Cl        1 <0>        -0.0408
     35 C27         2.0358   -4.6402    5.4469 C.2       1 <0>         0.5224
     36 O5          1.9761   -5.8508    5.4031 O.2       1 <0>        -0.5327
     37 N2          2.3676   -3.9556    4.3429 N.am      1 <0>        -0.5910
     38 C28         2.4438   -4.6855    3.0591 C.3       1 <0>         0.1036
     39 C29         1.3387   -4.1461    2.1525 C.3       1 <0>        -0.0989
     40 H1          1.0053    1.8021    0.0021 H         1 <0>         0.0571
     41 H2         -0.5445    1.7859   -0.8732 H         1 <0>         0.1037
     42 H3         -0.5275    1.7763    0.9067 H         1 <0>         0.0566
     43 H4          0.2357   -2.5874    0.3094 H         1 <0>         0.1323
     44 H5          1.1633    1.2154    2.0120 H         1 <0>         0.1399
     45 H6          1.2494    1.9465    3.9700 H         1 <0>         0.0598
     46 H7          2.7913    2.1250    4.8412 H         1 <0>         0.1076
     47 H8          2.7824    1.9893    3.0665 H         1 <0>         0.0584
     48 H9          3.7022   -2.4100    4.1046 H         1 <0>         0.0883
     49 H10         1.9731   -0.7992    5.3839 H         1 <0>         0.1522
     50 H11         4.4073   -1.2039    5.8595 H         1 <0>         0.0842
     51 H12         3.4365   -1.1621    7.3522 H         1 <0>         0.0797
     52 H13         4.3028   -3.6795    5.8586 H         1 <0>         0.0667
     53 H14         5.0159   -3.0743    7.3718 H         1 <0>         0.0768
     54 H15         3.3559   -4.8622    7.8183 H         1 <0>         0.0878
     55 H16         2.8218   -3.3071    8.5012 H         1 <0>         0.0868
     56 H17         0.9385   -4.4236    7.2984 H         1 <0>         0.1383
     57 H18        -0.8145   -0.4624    4.4451 H         1 <0>         0.1349
     58 H19        -2.4151   -0.9570    2.6435 H         1 <0>         0.1335
     59 H20        -3.4878   -4.6041    4.6197 H         1 <0>         0.1370
     60 H21        -1.8763   -4.0978    6.4084 H         1 <0>         0.1424
     61 H22        -3.5858   -1.3307    1.3181 H         1 <0>         0.1428
     62 H23        -5.1905   -1.8387   -0.4752 H         1 <0>         0.1483
     63 H24        -4.6652   -4.9731    3.2990 H         1 <0>         0.1476
     64 H25         3.4162   -4.5182    2.5959 H         1 <0>         0.0798
     65 H26         2.2938   -5.7514    3.2306 H         1 <0>         0.1078
     66 H27         0.3751   -4.5124    2.5068 H         1 <0>         0.0865
     67 H28         1.5040   -4.5033    1.1361 H         1 <0>         0.0947
@<TRIPOS>BOND
     1    1    2 1
     2    1   40 1
     3    1   41 1
     4    1   42 1
     5    2    3 1
     6    3    8 ar
     7    3    4 ar
     8    4    5 ar
     9    4   43 1
    10    5   39 1
    11    5    6 ar
    12    6    7 ar
    13    6   11 1
    14    7    8 ar
    15    7    9 1
    16    8   44 1
    17    9   10 1
    18   10   45 1
    19   10   46 1
    20   10   47 1
    21   11   37 1
    22   11   12 1
    23   11   48 1
    24   12   17 1
    25   12   13 1
    26   12   49 1
    27   13   14 1
    28   13   50 1
    29   13   51 1
    30   14   15 1
    31   14   52 1
    32   14   53 1
    33   15   16 1
    34   15   54 1
    35   15   55 1
    36   16   17 1
    37   16   35 1
    38   16   56 1
    39   17   18 1
    40   18   19 2
    41   18   20 2
    42   18   21 1
    43   21   26 ar
    44   21   22 ar
    45   22   23 ar
    46   22   57 1
    47   23   24 ar
    48   23   58 1
    49   24   25 ar
    50   24   27 1
    51   25   26 ar
    52   25   59 1
    53   26   60 1
    54   27   32 ar
    55   27   28 ar
    56   28   29 ar
    57   28   61 1
    58   29   30 ar
    59   29   62 1
    60   30   31 ar
    61   30   34 1
    62   31   32 ar
    63   31   33 1
    64   32   63 1
    65   35   36 2
    66   35   37 am
    67   37   38 1
    68   38   39 1
    69   38   64 1
    70   38   65 1
    71   39   66 1
    72   39   67 1
@<TRIPOS>MOLECULE
CHEMBL201359__3
   67    72     0     0     0
SMALL
USER_CHARGES

@<TRIPOS>ATOM
      1 C1         -0.0173    1.4248    0.0099 C.3       1 <0>         0.0254
      2 O1          0.0021   -0.0041    0.0020 O.3       1 <0>        -0.3101
      3 C2          0.6255   -0.6181    1.0410 C.ar      1 <0>         0.1780
      4 C3          0.7098   -2.0030    1.0863 C.ar      1 <0>        -0.1785
      5 C4          1.3166   -2.6194    2.1590 C.ar      1 <0>         0.0020
      6 C5          1.8212   -1.8782    3.2220 C.ar      1 <0>        -0.1615
      7 C6          1.8181   -0.4975    3.1303 C.ar      1 <0>         0.1895
      8 C7          1.2076    0.1309    2.0488 C.ar      1 <0>        -0.3046
      9 O2          2.4462    0.2881    4.0448 O.3       1 <0>        -0.3105
     10 C8          2.3739    1.7012    3.8450 C.3       1 <0>         0.0226
     11 C9          2.3232   -2.6253    4.4230 C.3       1 <0>         0.2022
     12 C10         2.3394   -1.7589    5.6750 C.3       1 <0>         0.1572
     13 C11         0.9950   -1.1156    5.9705 C.3       1 <0>        -0.1174
     14 C12        -0.0460   -2.1214    6.4545 C.3       1 <0>        -0.1266
     15 C13         0.4955   -2.9154    7.6486 C.3       1 <0>        -0.1255
     16 C14         1.7525   -3.6658    7.1587 C.3       1 <0>         0.1426
     17 N1          2.7355   -2.6192    6.8125 N.pl3     1 <0>        -1.0032
     18 S1          4.1632   -2.4170    7.6246 S.o2      1 <0>         2.6905
     19 O3          4.4722   -3.6694    8.2207 O.2       1 <0>        -0.9457
     20 O4          5.0499   -1.7598    6.7297 O.2       1 <0>        -0.9436
     21 C15         3.8562   -1.2925    8.9459 C.ar      1 <0>        -0.6739
     22 C16         4.0088    0.0672    8.7430 C.ar      1 <0>        -0.0127
     23 C17         3.7697    0.9526    9.7745 C.ar      1 <0>        -0.1278
     24 C18         3.3734    0.4744   11.0218 C.ar      1 <0>         0.0109
     25 C19         3.2208   -0.8963   11.2205 C.ar      1 <0>        -0.1279
     26 C20         3.4580   -1.7723   10.1806 C.ar      1 <0>        -0.0130
     27 C21         3.1154    1.4214   12.1347 C.ar      1 <0>        -0.0435
     28 C22         3.2631    2.7926   11.9341 C.ar      1 <0>        -0.0869
     29 C23         3.0222    3.6698   12.9716 C.ar      1 <0>        -0.0955
     30 C24         2.6342    3.1902   14.2109 C.ar      1 <0>        -0.0249
     31 C25         2.4859    1.8282   14.4159 C.ar      1 <0>        -0.0299
     32 C26         2.7192    0.9429   13.3816 C.ar      1 <0>        -0.0837
     33 Cl1         1.9990    1.2338   15.9726 Cl        1 <0>        -0.0389
     34 Cl2         2.3332    4.2990   15.5124 Cl        1 <0>        -0.0399
     35 C27         1.3618   -4.3657    5.8825 C.2       1 <0>         0.5192
     36 O5          0.8072   -5.4428    5.9654 O.2       1 <0>        -0.5334
     37 N2          1.5876   -3.8647    4.6507 N.am      1 <0>        -0.5950
     38 C28         1.0443   -4.6580    3.5392 C.3       1 <0>         0.1180
     39 C29         1.4805   -4.1161    2.1865 C.3       1 <0>        -0.0940
     40 H1          1.0053    1.8021    0.0021 H         1 <0>         0.0569
     41 H2         -0.5445    1.7859   -0.8732 H         1 <0>         0.1042
     42 H3         -0.5275    1.7763    0.9067 H         1 <0>         0.0566
     43 H4          0.2979   -2.6000    0.2848 H         1 <0>         0.1376
     44 H5          1.1929    1.2107    1.9971 H         1 <0>         0.1398
     45 H6          1.3306    2.0167    3.8552 H         1 <0>         0.0572
     46 H7          2.9150    2.2092    4.6433 H         1 <0>         0.1049
     47 H8          2.8211    1.9556    2.8840 H         1 <0>         0.0586
     48 H9          3.3676   -2.9072    4.2166 H         1 <0>         0.0816
     49 H10         3.1079   -0.9885    5.5745 H         1 <0>         0.1278
     50 H11         1.1266   -0.3497    6.7403 H         1 <0>         0.0717
     51 H12         0.6093   -0.6291    5.0714 H         1 <0>         0.0803
     52 H13        -0.9465   -1.5833    6.7653 H         1 <0>         0.0711
     53 H14        -0.3079   -2.8018    5.6471 H         1 <0>         0.0686
     54 H15         0.7631   -2.2342    8.4551 H         1 <0>         0.0845
     55 H16        -0.2522   -3.6288    7.9923 H         1 <0>         0.0878
     56 H17         2.1311   -4.3581    7.9075 H         1 <0>         0.1447
     57 H18         4.3160    0.4367    7.7758 H         1 <0>         0.1441
     58 H19         3.8899    2.0140    9.6152 H         1 <0>         0.1380
     59 H20         2.9139   -1.2723   12.1853 H         1 <0>         0.1380
     60 H21         3.3360   -2.8346   10.3323 H         1 <0>         0.1450
     61 H22         3.5661    3.1682   10.9679 H         1 <0>         0.1447
     62 H23         3.1369    4.7324   12.8167 H         1 <0>         0.1490
     63 H24         2.5991   -0.1186   13.5406 H         1 <0>         0.1484
     64 H25         1.3951   -5.6880    3.6376 H         1 <0>         0.0845
     65 H26        -0.0454   -4.6536    3.5958 H         1 <0>         0.0721
     66 H27         0.8677   -4.5609    1.4006 H         1 <0>         0.0993
     67 H28         2.5283   -4.3684    2.0109 H         1 <0>         0.0933
@<TRIPOS>BOND
     1    1    2 1
     2    1   40 1
     3    1   41 1
     4    1   42 1
     5    2    3 1
     6    3    8 ar
     7    3    4 ar
     8    4    5 ar
     9    4   43 1
    10    5   39 1
    11    5    6 ar
    12    6    7 ar
    13    6   11 1
    14    7    8 ar
    15    7    9 1
    16    8   44 1
    17    9   10 1
    18   10   45 1
    19   10   46 1
    20   10   47 1
    21   11   37 1
    22   11   12 1
    23   11   48 1
    24   12   17 1
    25   12   13 1
    26   12   49 1
    27   13   14 1
    28   13   50 1
    29   13   51 1
    30   14   15 1
    31   14   52 1
    32   14   53 1
    33   15   16 1
    34   15   54 1
    35   15   55 1
    36   16   17 1
    37   16   35 1
    38   16   56 1
    39   17   18 1
    40   18   19 2
    41   18   20 2
    42   18   21 1
    43   21   26 ar
    44   21   22 ar
    45   22   23 ar
    46   22   57 1
    47   23   24 ar
    48   23   58 1
    49   24   25 ar
    50   24   27 1
    51   25   26 ar
    52   25   59 1
    53   26   60 1
    54   27   32 ar
    55   27   28 ar
    56   28   29 ar
    57   28   61 1
    58   29   30 ar
    59   29   62 1
    60   30   31 ar
    61   30   34 1
    62   31   32 ar
    63   31   33 1
    64   32   63 1
    65   35   36 2
    66   35   37 am
    67   37   38 1
    68   38   39 1
    69   38   64 1
    70   38   65 1
    71   39   66 1
    72   39   67 1
@<TRIPOS>MOLECULE
CHEMBL33299
   59    61     0     0     0
SMALL
USER_CHARGES

@<TRIPOS>ATOM
      1 C1          0.4500    2.8261    1.4181 C.ar      1 <0>        -0.1253
      2 C2          1.4583    3.3425    2.2102 C.ar      1 <0>        -0.1179
      3 C3          2.7270    2.7961    2.1576 C.ar      1 <0>        -0.1180
      4 C4          2.9872    1.7330    1.3132 C.ar      1 <0>        -0.0829
      5 C5          1.9786    1.2160    0.5218 C.ar      1 <0>        -0.1184
      6 C6          0.7103    1.7633    0.5734 C.ar      1 <0>        -0.1184
      7 C7          4.3706    1.1380    1.2551 C.3       1 <0>        -0.0804
      8 C8          4.4864    0.0148    2.2875 C.3       1 <0>        -0.1099
      9 C9          5.8908   -0.5893    2.2285 C.3       1 <0>        -0.1329
     10 C10         6.0067   -1.7125    3.2609 C.3       1 <0>         0.1205
     11 N1          7.3515   -2.2910    3.2044 N.am      1 <0>        -0.7054
     12 C11         7.6850   -3.3030    4.0297 C.2       1 <0>         0.5232
     13 O1          6.8718   -3.7347    4.8192 O.2       1 <0>        -0.5474
     14 C12         9.0683   -3.8980    3.9716 C.3       1 <0>         0.1386
     15 H1          9.6914   -3.3090    3.2987 H         1 <0>         0.0963
     16 C13         8.9857   -5.3410    3.4639 C.3       1 <0>        -0.1242
     17 C14        10.3725   -5.9840    3.5389 C.3       1 <0>        -0.1164
     18 C15        10.8465   -6.0102    4.9938 C.3       1 <0>        -0.1397
     19 C16        10.9502   -4.5748    5.5188 C.3       1 <0>         0.1182
     20 N2          9.6605   -3.8999    5.3162 N.pl3     1 <0>        -0.9901
     21 S1          8.8874   -3.1596    6.5798 S.o2      1 <0>         2.6078
     22 O2          9.9163   -2.8741    7.5173 O.2       1 <0>        -0.9563
     23 O3          8.1399   -2.1091    5.9822 O.2       1 <0>        -0.9394
     24 C17         7.7681   -4.4223    7.2457 C.3       1 <0>        -0.5785
     25 C18         7.0049   -3.8518    8.4132 C.ar      1 <0>        -0.0895
     26 C19         7.5188   -3.9560    9.6922 C.ar      1 <0>        -0.1098
     27 C20         6.8187   -3.4326   10.7631 C.ar      1 <0>        -0.1199
     28 C21         5.6049   -2.8047   10.5549 C.ar      1 <0>        -0.1119
     29 C22         5.0915   -2.6997    9.2758 C.ar      1 <0>        -0.1205
     30 C23         5.7936   -3.2192    8.2044 C.ar      1 <0>        -0.0966
     31 H2         -0.5423    3.2501    1.4626 H         1 <0>         0.1208
     32 H3          1.2551    4.1731    2.8699 H         1 <0>         0.1215
     33 H4          3.5150    3.2001    2.7759 H         1 <0>         0.1211
     34 H5          2.1820    0.3856   -0.1382 H         1 <0>         0.1205
     35 H6         -0.0776    1.3596   -0.0452 H         1 <0>         0.1213
     36 H7          4.5514    0.7354    0.2584 H         1 <0>         0.0727
     37 H8          5.1078    1.9104    1.4742 H         1 <0>         0.0733
     38 H9          4.3056    0.4173    3.2842 H         1 <0>         0.0687
     39 H10         3.7492   -0.7576    2.0684 H         1 <0>         0.0674
     40 H11         6.0716   -0.9919    1.2318 H         1 <0>         0.0694
     41 H12         6.6281    0.1830    2.4476 H         1 <0>         0.0718
     42 H13         5.8259   -1.3100    4.2576 H         1 <0>         0.0779
     43 H14         5.2694   -2.4849    3.0418 H         1 <0>         0.0680
     44 H15         8.0018   -1.9456    2.5731 H         1 <0>         0.4009
     45 H16         8.2890   -5.9054    4.0837 H         1 <0>         0.0802
     46 H17         8.6388   -5.3438    2.4306 H         1 <0>         0.0806
     47 H18        10.3215   -7.0030    3.1551 H         1 <0>         0.0731
     48 H19        11.0742   -5.4049    2.9387 H         1 <0>         0.0687
     49 H20        10.1323   -6.5684    5.5991 H         1 <0>         0.0696
     50 H21        11.8240   -6.4894    5.0493 H         1 <0>         0.0815
     51 H22        11.1913   -4.5910    6.5817 H         1 <0>         0.0962
     52 H23        11.7288   -4.0416    4.9734 H         1 <0>         0.0783
     53 H24         7.0676   -4.7323    6.4702 H         1 <0>         0.1699
     54 H25         8.3481   -5.2837    7.5768 H         1 <0>         0.1282
     55 H26         8.4671   -4.4466    9.8549 H         1 <0>         0.1271
     56 H27         7.2198   -3.5147   11.7625 H         1 <0>         0.1281
     57 H28         5.0576   -2.3964   11.3917 H         1 <0>         0.1265
     58 H29         4.1430   -2.2093    9.1132 H         1 <0>         0.1276
     59 H30         5.3943   -3.1339    7.2045 H         1 <0>         0.1342
@<TRIPOS>BOND
     1    1    6 ar
     2    1    2 ar
     3    1   31 1
     4    2    3 ar
     5    2   32 1
     6    3    4 ar
     7    3   33 1
     8    4    5 ar
     9    4    7 1
    10    5    6 ar
    11    5   34 1
    12    6   35 1
    13    7    8 1
    14    7   36 1
    15    7   37 1
    16    8    9 1
    17    8   38 1
    18    8   39 1
    19    9   10 1
    20    9   40 1
    21    9   41 1
    22   10   11 1
    23   10   42 1
    24   10   43 1
    25   11   12 am
    26   11   44 1
    27   12   13 2
    28   12   14 1
    29   14   15 1
    30   14   20 1
    31   14   16 1
    32   16   17 1
    33   16   45 1
    34   16   46 1
    35   17   18 1
    36   17   47 1
    37   17   48 1
    38   18   19 1
    39   18   49 1
    40   18   50 1
    41   19   20 1
    42   19   51 1
    43   19   52 1
    44   20   21 1
    45   21   22 2
    46   21   23 2
    47   21   24 1
    48   24   25 1
    49   24   53 1
    50   24   54 1
    51   25   30 ar
    52   25   26 ar
    53   26   27 ar
    54   26   55 1
    55   27   28 ar
    56   27   56 1
    57   28   29 ar
    58   28   57 1
    59   29   30 ar
    60   29   58 1
    61   30   59 1
@<TRIPOS>MOLECULE
CHEMBL201214
   58    62     0     0     0
SMALL
USER_CHARGES

@<TRIPOS>ATOM
      1 C1         -0.0173    1.4248    0.0099 C.3       1 <0>         0.0252
      2 O1          0.0021   -0.0041    0.0020 O.3       1 <0>        -0.3102
      3 C2         -1.1994   -0.6370    0.0101 C.ar      1 <0>         0.1795
      4 C3         -1.2603   -2.0236   -0.0322 C.ar      1 <0>        -0.1791
      5 C4         -2.4813   -2.6561    0.0215 C.ar      1 <0>         0.0022
      6 C5         -3.6611   -1.9308    0.1439 C.ar      1 <0>        -0.1673
      7 C6         -3.6047   -0.5527    0.0661 C.ar      1 <0>         0.1912
      8 C7         -2.3738    0.0950    0.0252 C.ar      1 <0>        -0.3051
      9 O2         -4.7276    0.2067   -0.0429 O.3       1 <0>        -0.3098
     10 C8         -4.5487    1.6225   -0.1160 C.3       1 <0>         0.0227
     11 C9         -4.9286   -2.6984    0.3933 C.3       1 <0>         0.2024
     12 C10        -6.0124   -1.8318    1.0140 C.3       1 <0>         0.1548
     13 C11        -5.5438   -1.0764    2.2477 C.3       1 <0>        -0.1171
     14 C12        -5.2799   -2.0112    3.4260 C.3       1 <0>        -0.1293
     15 C13        -6.5321   -2.8417    3.7240 C.3       1 <0>        -0.1220
     16 C14        -6.8420   -3.6756    2.4636 C.3       1 <0>         0.1446
     17 N1         -7.1443   -2.7087    1.3887 N.pl3     1 <0>        -1.0013
     18 S1         -8.6261   -2.6075    0.6584 S.o2      1 <0>         2.6904
     19 O3         -9.5698   -3.1372    1.5793 O.2       1 <0>        -0.9406
     20 O4         -8.7308   -1.2915    0.1326 O.2       1 <0>        -0.9389
     21 C15        -8.6018   -3.7012   -0.7229 C.ar      1 <0>        -0.6598
     22 C16        -8.1827   -3.2408   -1.9585 C.ar      1 <0>        -0.0192
     23 C17        -8.1611   -4.0917   -3.0441 C.ar      1 <0>        -0.0909
     24 C18        -8.5632   -5.4204   -2.8938 C.ar      1 <0>         0.0341
     25 C19        -8.9847   -5.8784   -1.6438 C.ar      1 <0>        -0.0895
     26 C20        -8.9966   -5.0180   -0.5656 C.ar      1 <0>        -0.0175
     27 C21        -8.5440   -6.3091   -4.0164 C.1       1 <0>         0.2408
     28 N2         -8.5287   -7.0141   -4.9070 N.1       1 <0>        -0.3888
     29 C22        -5.5650   -4.3796    2.0864 C.2       1 <0>         0.5139
     30 O5         -5.3082   -5.4338    2.6303 O.2       1 <0>        -0.5332
     31 N3         -4.6887   -3.9049    1.1787 N.am      1 <0>        -0.5933
     32 C23        -3.4592   -4.6960    1.0232 C.3       1 <0>         0.1185
     33 C24        -2.5759   -4.1553   -0.0913 C.3       1 <0>        -0.0933
     34 H1          1.0053    1.8021    0.0021 H         1 <0>         0.1044
     35 H2         -0.5445    1.7859   -0.8732 H         1 <0>         0.0572
     36 H3         -0.5275    1.7763    0.9067 H         1 <0>         0.0572
     37 H4         -0.3527   -2.6054   -0.1053 H         1 <0>         0.1372
     38 H5         -2.3386    1.1748    0.0075 H         1 <0>         0.1402
     39 H6         -5.5211    2.1078   -0.2002 H         1 <0>         0.1078
     40 H7         -4.0450    1.9721    0.7853 H         1 <0>         0.0574
     41 H8         -3.9434    1.8677   -0.9887 H         1 <0>         0.0578
     42 H9         -5.3044   -3.0280   -0.5877 H         1 <0>         0.0768
     43 H10        -6.3825   -1.1253    0.2664 H         1 <0>         0.1306
     44 H11        -4.6295   -0.5254    2.0349 H         1 <0>         0.0820
     45 H12        -6.3176   -0.3580    2.5386 H         1 <0>         0.0757
     46 H13        -4.4448   -2.6693    3.1942 H         1 <0>         0.0682
     47 H14        -5.0283   -1.4151    4.3065 H         1 <0>         0.0730
     48 H15        -6.3447   -3.5046    4.5681 H         1 <0>         0.0881
     49 H16        -7.3700   -2.1830    3.9469 H         1 <0>         0.0884
     50 H17        -7.6597   -4.3741    2.6293 H         1 <0>         0.1428
     51 H18        -7.8719   -2.2129   -2.0734 H         1 <0>         0.1522
     52 H19        -7.8344   -3.7308   -4.0082 H         1 <0>         0.1457
     53 H20        -9.2970   -6.9049   -1.5207 H         1 <0>         0.1461
     54 H21        -9.3185   -5.3720    0.4026 H         1 <0>         0.1520
     55 H22        -2.9035   -4.6799    1.9611 H         1 <0>         0.0728
     56 H23        -3.7293   -5.7284    0.7935 H         1 <0>         0.0826
     57 H24        -3.0063   -4.4174   -1.0592 H         1 <0>         0.0912
     58 H25        -1.5788   -4.5889   -0.0121 H         1 <0>         0.0985
@<TRIPOS>BOND
     1    1    2 1
     2    1   34 1
     3    1   35 1
     4    1   36 1
     5    2    3 1
     6    3    8 ar
     7    3    4 ar
     8    4    5 ar
     9    4   37 1
    10    5   33 1
    11    5    6 ar
    12    6    7 ar
    13    6   11 1
    14    7    8 ar
    15    7    9 1
    16    8   38 1
    17    9   10 1
    18   10   39 1
    19   10   40 1
    20   10   41 1
    21   11   31 1
    22   11   12 1
    23   11   42 1
    24   12   17 1
    25   12   13 1
    26   12   43 1
    27   13   14 1
    28   13   44 1
    29   13   45 1
    30   14   15 1
    31   14   46 1
    32   14   47 1
    33   15   16 1
    34   15   48 1
    35   15   49 1
    36   16   17 1
    37   16   29 1
    38   16   50 1
    39   17   18 1
    40   18   19 2
    41   18   20 2
    42   18   21 1
    43   21   26 ar
    44   21   22 ar
    45   22   23 ar
    46   22   51 1
    47   23   24 ar
    48   23   52 1
    49   24   25 ar
    50   24   27 1
    51   25   26 ar
    52   25   53 1
    53   26   54 1
    54   27   28 3
    55   29   30 2
    56   29   31 am
    57   31   32 1
    58   32   33 1
    59   32   55 1
    60   32   56 1
    61   33   57 1
    62   33   58 1
@<TRIPOS>MOLECULE
CHEMBL201214__1
   58    62     0     0     0
SMALL
USER_CHARGES

@<TRIPOS>ATOM
      1 C1         -0.0173    1.4248    0.0099 C.3       1 <0>         0.0254
      2 O1          0.0021   -0.0041    0.0020 O.3       1 <0>        -0.3119
      3 C2         -1.2002   -0.6374    0.0101 C.ar      1 <0>         0.1741
      4 C3         -1.2561   -2.0213    0.0089 C.ar      1 <0>        -0.1880
      5 C4         -2.4782   -2.6802    0.0133 C.ar      1 <0>         0.0086
      6 C5         -3.6455   -1.9471    0.0112 C.ar      1 <0>        -0.1701
      7 C6         -3.5932   -0.5558    0.0209 C.ar      1 <0>         0.1830
      8 C7         -2.3740    0.0997    0.0253 C.ar      1 <0>        -0.2906
      9 O2         -4.7464    0.1632    0.0314 O.3       1 <0>        -0.3060
     10 C8         -4.6232    1.5868    0.0410 C.3       1 <0>         0.0165
     11 C9         -4.9968   -2.6091   -0.0184 C.3       1 <0>         0.2013
     12 C10        -5.9820   -1.8764    0.8751 C.3       1 <0>         0.1284
     13 C11        -7.3557   -1.8322    0.1933 C.3       1 <0>        -0.1264
     14 C12        -7.8658   -3.2620   -0.0007 C.3       1 <0>        -0.1283
     15 C13        -7.9885   -3.9564    1.3571 C.3       1 <0>        -0.1249
     16 C14        -6.6142   -3.9900    2.0363 C.3       1 <0>         0.1378
     17 N1         -6.1302   -2.5969    2.1520 N.pl3     1 <0>        -0.9927
     18 S1         -5.7795   -1.8976    3.6116 S.o2      1 <0>         2.6869
     19 O3         -5.4893   -2.9587    4.5111 O.2       1 <0>        -0.9438
     20 O4         -4.8579   -0.8485    3.3483 O.2       1 <0>        -0.9369
     21 C15        -7.2580   -1.1351    4.1925 C.ar      1 <0>        -0.6560
     22 C16        -7.5343    0.1779    3.8545 C.ar      1 <0>        -0.0179
     23 C17        -8.6899    0.7810    4.3059 C.ar      1 <0>        -0.0909
     24 C18        -9.5819    0.0633    5.1052 C.ar      1 <0>         0.0335
     25 C19        -9.2969   -1.2615    5.4420 C.ar      1 <0>        -0.0896
     26 C20        -8.1400   -1.8538    4.9798 C.ar      1 <0>        -0.0193
     27 C21       -10.7832    0.6831    5.5777 C.1       1 <0>         0.2404
     28 N2        -11.7362    1.1748    5.9525 N.1       1 <0>        -0.3888
     29 C22        -5.6397   -4.7063    1.1319 C.2       1 <0>         0.5265
     30 O5         -5.5489   -5.9143    1.1902 O.2       1 <0>        -0.5314
     31 N3         -4.8737   -4.0283    0.2653 N.am      1 <0>        -0.5937
     32 C23        -3.7993   -4.7566   -0.4432 C.3       1 <0>         0.1036
     33 C24        -2.4632   -4.1858    0.0288 C.3       1 <0>        -0.1006
     34 H1          1.0053    1.8021    0.0021 H         1 <0>         0.1032
     35 H2         -0.5445    1.7859   -0.8732 H         1 <0>         0.0561
     36 H3         -0.5275    1.7763    0.9067 H         1 <0>         0.0572
     37 H4         -0.3402   -2.5935    0.0042 H         1 <0>         0.1344
     38 H5         -2.3376    1.1790    0.0363 H         1 <0>         0.1390
     39 H6         -5.6157    2.0373    0.0488 H         1 <0>         0.1043
     40 H7         -4.0759    1.8982    0.9307 H         1 <0>         0.0618
     41 H8         -4.0841    1.9109   -0.8492 H         1 <0>         0.0582
     42 H9         -5.3731   -2.5181   -1.0374 H         1 <0>         0.0883
     43 H10        -5.6230   -0.8648    1.0645 H         1 <0>         0.1536
     44 H11        -8.0552   -1.2776    0.8188 H         1 <0>         0.0771
     45 H12        -7.2656   -1.3428   -0.7765 H         1 <0>         0.0845
     46 H13        -8.8424   -3.2360   -0.4840 H         1 <0>         0.0755
     47 H14        -7.1664   -3.8143   -0.6284 H         1 <0>         0.0681
     48 H15        -8.6908   -3.4074    1.9843 H         1 <0>         0.0839
     49 H16        -8.3482   -4.9753    1.2134 H         1 <0>         0.0879
     50 H17        -6.6756   -4.4643    3.0157 H         1 <0>         0.1396
     51 H18        -6.8435    0.7319    3.2362 H         1 <0>         0.1506
     52 H19        -8.9041    1.8062    4.0419 H         1 <0>         0.1454
     53 H20        -9.9826   -1.8224    6.0599 H         1 <0>         0.1463
     54 H21        -7.9203   -2.8797    5.2362 H         1 <0>         0.1521
     55 H22        -3.8528   -5.8186   -0.2038 H         1 <0>         0.1088
     56 H23        -3.9030   -4.6137   -1.5188 H         1 <0>         0.0807
     57 H24        -1.6703   -4.5420   -0.6288 H         1 <0>         0.0966
     58 H25        -2.2660   -4.5306    1.0439 H         1 <0>         0.0887
@<TRIPOS>BOND
     1    1    2 1
     2    1   34 1
     3    1   35 1
     4    1   36 1
     5    2    3 1
     6    3    8 ar
     7    3    4 ar
     8    4    5 ar
     9    4   37 1
    10    5   33 1
    11    5    6 ar
    12    6    7 ar
    13    6   11 1
    14    7    8 ar
    15    7    9 1
    16    8   38 1
    17    9   10 1
    18   10   39 1
    19   10   40 1
    20   10   41 1
    21   11   31 1
    22   11   12 1
    23   11   42 1
    24   12   17 1
    25   12   13 1
    26   12   43 1
    27   13   14 1
    28   13   44 1
    29   13   45 1
    30   14   15 1
    31   14   46 1
    32   14   47 1
    33   15   16 1
    34   15   48 1
    35   15   49 1
    36   16   17 1
    37   16   29 1
    38   16   50 1
    39   17   18 1
    40   18   19 2
    41   18   20 2
    42   18   21 1
    43   21   26 ar
    44   21   22 ar
    45   22   23 ar
    46   22   51 1
    47   23   24 ar
    48   23   52 1
    49   24   25 ar
    50   24   27 1
    51   25   26 ar
    52   25   53 1
    53   26   54 1
    54   27   28 3
    55   29   30 2
    56   29   31 am
    57   31   32 1
    58   32   33 1
    59   32   55 1
    60   32   56 1
    61   33   57 1
    62   33   58 1
@<TRIPOS>MOLECULE
CHEMBL201214__2
   58    62     0     0     0
SMALL
USER_CHARGES

@<TRIPOS>ATOM
      1 C1         -0.0173    1.4248    0.0099 C.3       1 <0>         0.0245
      2 O1          0.0021   -0.0041    0.0020 O.3       1 <0>        -0.3113
      3 C2         -1.2002   -0.6374    0.0101 C.ar      1 <0>         0.1748
      4 C3         -1.2565   -2.0213    0.0089 C.ar      1 <0>        -0.1869
      5 C4         -2.4784   -2.6802    0.0199 C.ar      1 <0>         0.0144
      6 C5         -3.6458   -1.9474    0.0393 C.ar      1 <0>        -0.1698
      7 C6         -3.5935   -0.5560    0.0330 C.ar      1 <0>         0.1707
      8 C7         -2.3743    0.0995    0.0253 C.ar      1 <0>        -0.2955
      9 O2         -4.7466    0.1631    0.0402 O.3       1 <0>        -0.3037
     10 C8         -4.6234    1.5867    0.0333 C.3       1 <0>         0.0180
     11 C9         -4.9967   -2.6092    0.0838 C.3       1 <0>         0.1957
     12 C10        -5.9906   -1.8773   -0.8008 C.3       1 <0>         0.1301
     13 C11        -7.3562   -1.8275   -0.1030 C.3       1 <0>        -0.1226
     14 C12        -7.8673   -3.2552    0.1026 C.3       1 <0>        -0.1294
     15 C13        -8.0075   -3.9546   -1.2510 C.3       1 <0>        -0.1217
     16 C14        -6.6417   -3.9936   -1.9464 C.3       1 <0>         0.1385
     17 N1         -6.1559   -2.6020   -2.0732 N.pl3     1 <0>        -0.9922
     18 S1         -5.8223   -1.9084   -3.5395 S.o2      1 <0>         2.6883
     19 O3         -6.5852   -2.6167   -4.5068 O.2       1 <0>        -0.9435
     20 O4         -5.9358   -0.5035   -3.3595 O.2       1 <0>        -0.9405
     21 C15        -4.1281   -2.2350   -3.8969 C.ar      1 <0>        -0.6561
     22 C16        -3.1526   -1.3473   -3.4788 C.ar      1 <0>        -0.0115
     23 C17        -1.8243   -1.5968   -3.7552 C.ar      1 <0>        -0.0870
     24 C18        -1.4652   -2.7485   -4.4582 C.ar      1 <0>         0.0351
     25 C19        -2.4548   -3.6403   -4.8768 C.ar      1 <0>        -0.0899
     26 C20        -3.7788   -3.3808   -4.5894 C.ar      1 <0>        -0.0174
     27 C21        -0.0884   -3.0137   -4.7491 C.1       1 <0>         0.2411
     28 N2          1.0039   -3.2240   -4.9798 N.1       1 <0>        -0.3889
     29 C22        -5.6575   -4.7088   -1.0520 C.2       1 <0>         0.5218
     30 O5         -5.5709   -5.9173   -1.1060 O.2       1 <0>        -0.5320
     31 N3         -4.8779   -4.0288   -0.1991 N.am      1 <0>        -0.5915
     32 C23        -3.7927   -4.7559    0.4941 C.3       1 <0>         0.1038
     33 C24        -2.4638   -4.1859    0.0013 C.3       1 <0>        -0.0996
     34 H1          1.0053    1.8021    0.0021 H         1 <0>         0.1036
     35 H2         -0.5445    1.7859   -0.8732 H         1 <0>         0.0572
     36 H3         -0.5275    1.7763    0.9067 H         1 <0>         0.0576
     37 H4         -0.3406   -2.5936   -0.0010 H         1 <0>         0.1325
     38 H5         -2.3380    1.1788    0.0269 H         1 <0>         0.1405
     39 H6         -5.6159    2.0373    0.0402 H         1 <0>         0.1079
     40 H7         -4.0723    1.9081    0.9171 H         1 <0>         0.0585
     41 H8         -4.0881    1.9007   -0.8628 H         1 <0>         0.0603
     42 H9         -5.3625   -2.5164    1.1064 H         1 <0>         0.0890
     43 H10        -5.6314   -0.8673   -0.9980 H         1 <0>         0.1528
     44 H11        -7.2535   -1.3346    0.8637 H         1 <0>         0.0846
     45 H12        -8.0617   -1.2736   -0.7223 H         1 <0>         0.0802
     46 H13        -7.1619   -3.8068    0.7241 H         1 <0>         0.0669
     47 H14        -8.8382   -3.2249    0.5972 H         1 <0>         0.0769
     48 H15        -8.3675   -4.9722   -1.0991 H         1 <0>         0.0881
     49 H16        -8.7162   -3.4066   -1.8719 H         1 <0>         0.0872
     50 H17        -6.7160   -4.4712   -2.9234 H         1 <0>         0.1396
     51 H18        -3.4317   -0.4569   -2.9351 H         1 <0>         0.1429
     52 H19        -1.0639   -0.9027   -3.4289 H         1 <0>         0.1406
     53 H20        -2.1839   -4.5330   -5.4210 H         1 <0>         0.1457
     54 H21        -4.5449   -4.0718   -4.9089 H         1 <0>         0.1508
     55 H22        -3.8802   -4.6115    1.5709 H         1 <0>         0.0801
     56 H23        -3.8497   -5.8184    0.2572 H         1 <0>         0.1082
     57 H24        -2.2834   -4.5291   -1.0174 H         1 <0>         0.0871
     58 H25        -1.6605   -4.5436    0.6455 H         1 <0>         0.0951
@<TRIPOS>BOND
     1    1    2 1
     2    1   34 1
     3    1   35 1
     4    1   36 1
     5    2    3 1
     6    3    8 ar
     7    3    4 ar
     8    4    5 ar
     9    4   37 1
    10    5   33 1
    11    5    6 ar
    12    6    7 ar
    13    6   11 1
    14    7    8 ar
    15    7    9 1
    16    8   38 1
    17    9   10 1
    18   10   39 1
    19   10   40 1
    20   10   41 1
    21   11   31 1
    22   11   12 1
    23   11   42 1
    24   12   17 1
    25   12   13 1
    26   12   43 1
    27   13   14 1
    28   13   44 1
    29   13   45 1
    30   14   15 1
    31   14   46 1
    32   14   47 1
    33   15   16 1
    34   15   48 1
    35   15   49 1
    36   16   17 1
    37   16   29 1
    38   16   50 1
    39   17   18 1
    40   18   19 2
    41   18   20 2
    42   18   21 1
    43   21   26 ar
    44   21   22 ar
    45   22   23 ar
    46   22   51 1
    47   23   24 ar
    48   23   52 1
    49   24   25 ar
    50   24   27 1
    51   25   26 ar
    52   25   53 1
    53   26   54 1
    54   27   28 3
    55   29   30 2
    56   29   31 am
    57   31   32 1
    58   32   33 1
    59   32   55 1
    60   32   56 1
    61   33   57 1
    62   33   58 1
@<TRIPOS>MOLECULE
CHEMBL201214__3
   58    62     0     0     0
SMALL
USER_CHARGES

@<TRIPOS>ATOM
      1 C1         -0.0173    1.4248    0.0099 C.3       1 <0>         0.0254
      2 O1          0.0021   -0.0041    0.0020 O.3       1 <0>        -0.3102
      3 C2         -1.1998   -0.6372    0.0101 C.ar      1 <0>         0.1781
      4 C3         -1.2595   -2.0239    0.0327 C.ar      1 <0>        -0.1786
      5 C4         -2.4821   -2.6591    0.0094 C.ar      1 <0>         0.0021
      6 C5         -3.6664   -1.9345   -0.0702 C.ar      1 <0>        -0.1619
      7 C6         -3.6070   -0.5538    0.0005 C.ar      1 <0>         0.1896
      8 C7         -2.3751    0.0935    0.0252 C.ar      1 <0>        -0.3047
      9 O2         -4.7251    0.2125    0.1028 O.3       1 <0>        -0.3107
     10 C8         -4.5380    1.6277    0.1684 C.3       1 <0>         0.0224
     11 C9         -4.9458   -2.6981   -0.2510 C.3       1 <0>         0.2024
     12 C10        -6.0517   -1.8369   -0.8456 C.3       1 <0>         0.1564
     13 C11        -5.6458   -1.1610   -2.1445 C.3       1 <0>        -0.1184
     14 C12        -5.5291   -2.1421   -3.3079 C.3       1 <0>        -0.1272
     15 C13        -6.8214   -2.9536   -3.4519 C.3       1 <0>        -0.1260
     16 C14        -7.0137   -3.7336   -2.1336 C.3       1 <0>         0.1422
     17 N1         -7.2213   -2.7108   -1.0886 N.pl3     1 <0>        -1.0025
     18 S1         -8.6413   -2.5473   -0.2544 S.o2      1 <0>         2.6897
     19 O3         -9.2924   -3.8092   -0.3099 O.2       1 <0>        -0.9415
     20 O4         -8.3196   -1.9094    0.9739 O.2       1 <0>        -0.9393
     21 C15        -9.6497   -1.4201   -1.1583 C.ar      1 <0>        -0.6556
     22 C16        -9.5709   -0.0637   -0.8970 C.ar      1 <0>        -0.0177
     23 C17       -10.3575    0.8244   -1.6008 C.ar      1 <0>        -0.0912
     24 C18       -11.2343    0.3517   -2.5793 C.ar      1 <0>         0.0337
     25 C19       -11.3084   -1.0184   -2.8382 C.ar      1 <0>        -0.0901
     26 C20       -10.5125   -1.8949   -2.1301 C.ar      1 <0>        -0.0183
     27 C21       -12.0542    1.2678   -3.3136 C.1       1 <0>         0.2403
     28 N2        -12.7046    1.9945   -3.8961 N.1       1 <0>        -0.3892
     29 C22        -5.7023   -4.4190   -1.8479 C.2       1 <0>         0.5190
     30 O5         -5.4801   -5.4821   -2.3910 O.2       1 <0>        -0.5330
     31 N3         -4.7561   -3.9195   -1.0265 N.am      1 <0>        -0.5951
     32 C23        -3.5096   -4.6951   -0.9571 C.3       1 <0>         0.1181
     33 C24        -2.5646   -4.1595    0.1077 C.3       1 <0>        -0.0941
     34 H1          1.0053    1.8021    0.0021 H         1 <0>         0.1042
     35 H2         -0.5445    1.7859   -0.8732 H         1 <0>         0.0566
     36 H3         -0.5275    1.7763    0.9067 H         1 <0>         0.0570
     37 H4         -0.3503   -2.6076    0.0649 H         1 <0>         0.1375
     38 H5         -2.3397    1.1734    0.0599 H         1 <0>         0.1398
     39 H6         -5.5076    2.1191    0.2478 H         1 <0>         0.1055
     40 H7         -3.9331    1.8741    1.0411 H         1 <0>         0.0586
     41 H8         -4.0304    1.9692   -0.7337 H         1 <0>         0.0573
     42 H9         -5.2846   -3.0055    0.7508 H         1 <0>         0.0821
     43 H10        -6.3606   -1.0856   -0.1146 H         1 <0>         0.1288
     44 H11        -6.3901   -0.4013   -2.4000 H         1 <0>         0.0726
     45 H12        -4.6819   -0.6619   -2.0192 H         1 <0>         0.0807
     46 H13        -5.3566   -1.5826   -4.2322 H         1 <0>         0.0715
     47 H14        -4.6883   -2.8128   -3.1446 H         1 <0>         0.0687
     48 H15        -7.6643   -2.2821   -3.6098 H         1 <0>         0.0852
     49 H16        -6.7343   -3.6492   -4.2854 H         1 <0>         0.0883
     50 H17        -7.8405   -4.4378   -2.1941 H         1 <0>         0.1459
     51 H18        -8.8922    0.3006   -0.1399 H         1 <0>         0.1519
     52 H19       -10.2955    1.8829   -1.3954 H         1 <0>         0.1451
     53 H20       -11.9845   -1.3907   -3.5937 H         1 <0>         0.1461
     54 H21       -10.5658   -2.9545   -2.3322 H         1 <0>         0.1529
     55 H22        -3.7541   -5.7338   -0.7231 H         1 <0>         0.0846
     56 H23        -3.0142   -4.6635   -1.9288 H         1 <0>         0.0721
     57 H24        -1.5708   -4.5861   -0.0388 H         1 <0>         0.0992
     58 H25        -2.9321   -4.4374    1.0977 H         1 <0>         0.0934
@<TRIPOS>BOND
     1    1    2 1
     2    1   34 1
     3    1   35 1
     4    1   36 1
     5    2    3 1
     6    3    8 ar
     7    3    4 ar
     8    4    5 ar
     9    4   37 1
    10    5   33 1
    11    5    6 ar
    12    6    7 ar
    13    6   11 1
    14    7    8 ar
    15    7    9 1
    16    8   38 1
    17    9   10 1
    18   10   39 1
    19   10   40 1
    20   10   41 1
    21   11   31 1
    22   11   12 1
    23   11   42 1
    24   12   17 1
    25   12   13 1
    26   12   43 1
    27   13   14 1
    28   13   44 1
    29   13   45 1
    30   14   15 1
    31   14   46 1
    32   14   47 1
    33   15   16 1
    34   15   48 1
    35   15   49 1
    36   16   17 1
    37   16   29 1
    38   16   50 1
    39   17   18 1
    40   18   19 2
    41   18   20 2
    42   18   21 1
    43   21   26 ar
    44   21   22 ar
    45   22   23 ar
    46   22   51 1
    47   23   24 ar
    48   23   52 1
    49   24   25 ar
    50   24   27 1
    51   25   26 ar
    52   25   53 1
    53   26   54 1
    54   27   28 3
    55   29   30 2
    56   29   31 am
    57   31   32 1
    58   32   33 1
    59   32   55 1
    60   32   56 1
    61   33   57 1
    62   33   58 1
@<TRIPOS>MOLECULE
CHEMBL202655
   55    59     0     0     0
SMALL
USER_CHARGES

@<TRIPOS>ATOM
      1 C1          0.0244    1.4014    0.0405 C.3       1 <0>         0.0252
      2 O1          0.0685   -0.0269    0.0392 O.3       1 <0>        -0.3100
      3 C2          0.6673   -0.6242   -1.0232 C.ar      1 <0>         0.1787
      4 C3          0.7781   -2.0072   -1.0771 C.ar      1 <0>        -0.1787
      5 C4          1.3445   -2.6049   -2.1791 C.ar      1 <0>         0.0019
      6 C5          1.7881   -1.8479   -3.2580 C.ar      1 <0>        -0.1647
      7 C6          1.7858   -0.4709   -3.1494 C.ar      1 <0>         0.1911
      8 C7          1.2020    0.1419   -2.0443 C.ar      1 <0>        -0.3051
      9 O2          2.4005    0.3232   -4.0668 O.3       1 <0>        -0.3085
     10 C8          2.3332    1.7344   -3.8523 C.3       1 <0>         0.0237
     11 C9          2.2103   -2.5836   -4.4992 C.3       1 <0>         0.2049
     12 C10         2.1661   -1.6999   -5.7343 C.3       1 <0>         0.1397
     13 C11         0.8366   -0.9810   -5.9119 C.3       1 <0>        -0.1174
     14 C12        -0.2916   -1.9463   -6.2670 C.3       1 <0>        -0.1326
     15 C13         0.0813   -2.7465   -7.5200 C.3       1 <0>        -0.1219
     16 C14         1.3598   -3.5455   -7.1930 C.3       1 <0>         0.0940
     17 N1          2.4151   -2.5492   -6.9201 N.am      1 <0>        -0.5874
     18 C15         3.5178   -2.4206   -7.6842 C.2       1 <0>         0.4953
     19 O3          4.3084   -1.5263   -7.4633 O.2       1 <0>        -0.4967
     20 C16         3.7667   -3.3767   -8.8010 C.2       1 <0>         0.4384
     21 O4          2.9223   -4.2008   -9.0955 O.2       1 <0>        -0.4178
     22 C17         4.9849   -3.3252   -9.5177 C.2       1 <0>        -0.3186
     23 C18         5.4104   -4.1142  -10.5870 C.2       1 <0>        -0.0378
     24 C19         6.6550   -3.8238  -11.0792 C.2       1 <0>        -0.2018
     25 C20         7.3732   -2.8172  -10.5122 C.2       1 <0>        -0.2285
     26 S1          6.3741   -2.2302   -9.2958 S.3       1 <0>         0.3197
     27 C21         1.0931   -4.2786   -5.9048 C.2       1 <0>         0.5127
     28 O5          0.5284   -5.3511   -5.9607 O.2       1 <0>        -0.5310
     29 N2          1.4450   -3.8118   -4.6901 N.am      1 <0>        -0.5994
     30 C22         1.0105   -4.6358   -3.5528 C.3       1 <0>         0.1185
     31 C23         1.5375   -4.0980   -2.2309 C.3       1 <0>        -0.0932
     32 H1          1.0400    1.7964    0.0165 H         1 <0>         0.0570
     33 H2         -0.5213    1.7489   -0.8368 H         1 <0>         0.0568
     34 H3         -0.4792    1.7485    0.9427 H         1 <0>         0.1044
     35 H4          0.4203   -2.6140   -0.2575 H         1 <0>         0.1379
     36 H5          1.1626    1.2201   -1.9899 H         1 <0>         0.1399
     37 H6          2.8620    2.2495   -4.6542 H         1 <0>         0.1057
     38 H7          1.2903    2.0511   -3.8428 H         1 <0>         0.0565
     39 H8          2.7959    1.9791   -2.8962 H         1 <0>         0.0578
     40 H9          3.2597   -2.8816   -4.3546 H         1 <0>         0.0770
     41 H10         2.9770   -0.9683   -5.6836 H         1 <0>         0.1337
     42 H11         0.5640   -0.4506   -5.0009 H         1 <0>         0.0823
     43 H12         0.9365   -0.2472   -6.7187 H         1 <0>         0.0721
     44 H13        -0.4718   -2.6218   -5.4333 H         1 <0>         0.0688
     45 H14        -1.2011   -1.3742   -6.4636 H         1 <0>         0.0729
     46 H15        -0.7282   -3.4318   -7.7722 H         1 <0>         0.0887
     47 H16         0.2683   -2.0683   -8.3510 H         1 <0>         0.0840
     48 H17         1.6323   -4.2232   -8.0000 H         1 <0>         0.1819
     49 H18         4.7984   -4.9027  -10.9993 H         1 <0>         0.1521
     50 H19         7.0611   -4.3869  -11.9065 H         1 <0>         0.1400
     51 H20         8.3595   -2.4715  -10.7846 H         1 <0>         0.1918
     52 H21        -0.0795   -4.6547   -3.5220 H         1 <0>         0.0726
     53 H22         1.3759   -5.6549   -3.6928 H         1 <0>         0.0827
     54 H23         2.6005   -4.3265   -2.1405 H         1 <0>         0.0915
     55 H24         0.9995   -4.5624   -1.4039 H         1 <0>         0.0993
@<TRIPOS>BOND
     1    1    2 1
     2    1   32 1
     3    1   33 1
     4    1   34 1
     5    2    3 1
     6    3    8 ar
     7    3    4 ar
     8    4    5 ar
     9    4   35 1
    10    5   31 1
    11    5    6 ar
    12    6    7 ar
    13    6   11 1
    14    7    8 ar
    15    7    9 1
    16    8   36 1
    17    9   10 1
    18   10   37 1
    19   10   38 1
    20   10   39 1
    21   11   29 1
    22   11   12 1
    23   11   40 1
    24   12   17 1
    25   12   13 1
    26   12   41 1
    27   13   14 1
    28   13   42 1
    29   13   43 1
    30   14   15 1
    31   14   44 1
    32   14   45 1
    33   15   16 1
    34   15   46 1
    35   15   47 1
    36   16   17 1
    37   16   27 1
    38   16   48 1
    39   17   18 am
    40   18   19 2
    41   18   20 1
    42   20   21 2
    43   20   22 1
    44   22   26 1
    45   22   23 2
    46   23   24 1
    47   23   49 1
    48   24   25 2
    49   24   50 1
    50   25   26 1
    51   25   51 1
    52   27   28 2
    53   27   29 am
    54   29   30 1
    55   30   31 1
    56   30   52 1
    57   30   53 1
    58   31   54 1
    59   31   55 1
@<TRIPOS>MOLECULE
CHEMBL202655__1
   55    59     0     0     0
SMALL
USER_CHARGES

@<TRIPOS>ATOM
      1 C1          0.0437    1.5205   -0.0373 C.3       1 <0>         0.0258
      2 O1          0.0578    0.0916   -0.0251 O.3       1 <0>        -0.3121
      3 C2          0.6516   -0.5286   -1.0784 C.ar      1 <0>         0.1737
      4 C3          0.6964   -1.9117   -1.1347 C.ar      1 <0>        -0.1887
      5 C4          1.3035   -2.5572   -2.2035 C.ar      1 <0>         0.0091
      6 C5          1.8729   -1.8113   -3.2133 C.ar      1 <0>        -0.1669
      7 C6          1.8223   -0.4208   -3.1643 C.ar      1 <0>         0.1809
      8 C7          1.2091    0.2213   -2.1023 C.ar      1 <0>        -0.2926
      9 O2          2.3740    0.3107   -4.1680 O.3       1 <0>        -0.3031
     10 C8          2.2882    1.7328   -4.0571 C.3       1 <0>         0.0200
     11 C9          2.5734   -2.4582   -4.3777 C.3       1 <0>         0.1990
     12 C10         2.2740   -1.7213   -5.6712 C.3       1 <0>         0.1133
     13 C11         3.5445   -1.6571   -6.5290 C.3       1 <0>        -0.1246
     14 C12         3.9817   -3.0797   -6.8853 C.3       1 <0>        -0.1330
     15 C13         2.8696   -3.7826   -7.6664 C.3       1 <0>        -0.1218
     16 C14         1.6011   -3.8362   -6.8068 C.3       1 <0>         0.0820
     17 N1          1.2452   -2.4494   -6.4347 N.am      1 <0>        -0.5787
     18 C15         0.0647   -1.8920   -6.7696 C.2       1 <0>         0.4942
     19 O3         -0.2272   -0.7907   -6.3505 O.2       1 <0>        -0.4964
     20 C16        -0.8829   -2.6280   -7.6548 C.2       1 <0>         0.4381
     21 O4         -0.6324   -3.7668   -8.0003 O.2       1 <0>        -0.4173
     22 C17        -2.0730   -2.0018   -8.0928 C.2       1 <0>        -0.3173
     23 C18        -3.0845   -2.5085   -8.9094 C.2       1 <0>        -0.0380
     24 C19        -4.1260   -1.6555   -9.1612 C.2       1 <0>        -0.2014
     25 C20        -4.1078   -0.4091   -8.6164 C.2       1 <0>        -0.2292
     26 S1         -2.6759   -0.3618   -7.7390 S.3       1 <0>         0.3184
     27 C21         1.9150   -4.5565   -5.5172 C.2       1 <0>         0.5220
     28 O5          1.8337   -5.7658   -5.4742 O.2       1 <0>        -0.5307
     29 N2          2.2826   -3.8807   -4.4192 N.am      1 <0>        -0.5978
     30 C22         2.3769   -4.6156   -3.1395 C.3       1 <0>         0.1032
     31 C23         1.3003   -4.0630   -2.2072 C.3       1 <0>        -0.0986
     32 H1          1.0676    1.8937   -0.0577 H         1 <0>         0.0562
     33 H2         -0.4884    1.8710   -0.9216 H         1 <0>         0.0566
     34 H3         -0.4587    1.8865    0.8580 H         1 <0>         0.1034
     35 H4          0.2551   -2.4939   -0.3392 H         1 <0>         0.1339
     36 H5          1.1688    1.3000   -2.0696 H         1 <0>         0.1387
     37 H6          2.7660    2.1941   -4.9214 H         1 <0>         0.1042
     38 H7          1.2407    2.0317   -4.0185 H         1 <0>         0.0592
     39 H8          2.7924    2.0573   -3.1469 H         1 <0>         0.0571
     40 H9          3.6442   -2.3558   -4.2014 H         1 <0>         0.0864
     41 H10         1.9203   -0.7151   -5.4464 H         1 <0>         0.1585
     42 H11         3.3393   -1.0994   -7.4428 H         1 <0>         0.0767
     43 H12         4.3376   -1.1617   -5.9689 H         1 <0>         0.0851
     44 H13         4.8838   -3.0395   -7.4959 H         1 <0>         0.0768
     45 H14         4.1888   -3.6351   -5.9705 H         1 <0>         0.0672
     46 H15         2.6644   -3.2304   -8.5836 H         1 <0>         0.0822
     47 H16         3.1841   -4.7964   -7.9144 H         1 <0>         0.0883
     48 H17         0.7852   -4.3169   -7.3465 H         1 <0>         0.1831
     49 H18        -3.0484   -3.5081   -9.3167 H         1 <0>         0.1523
     50 H19        -4.9508   -1.9681   -9.7845 H         1 <0>         0.1402
     51 H20        -4.8473    0.3710   -8.7210 H         1 <0>         0.1916
     52 H21         2.2076   -5.6787   -3.3104 H         1 <0>         0.1081
     53 H22         3.3618   -4.4637   -2.6978 H         1 <0>         0.0801
     54 H23         1.4849   -4.4231   -1.1951 H         1 <0>         0.0961
     55 H24         0.3243   -4.4173   -2.5388 H         1 <0>         0.0866
@<TRIPOS>BOND
     1    1    2 1
     2    1   32 1
     3    1   33 1
     4    1   34 1
     5    2    3 1
     6    3    8 ar
     7    3    4 ar
     8    4    5 ar
     9    4   35 1
    10    5   31 1
    11    5    6 ar
    12    6    7 ar
    13    6   11 1
    14    7    8 ar
    15    7    9 1
    16    8   36 1
    17    9   10 1
    18   10   37 1
    19   10   38 1
    20   10   39 1
    21   11   29 1
    22   11   12 1
    23   11   40 1
    24   12   17 1
    25   12   13 1
    26   12   41 1
    27   13   14 1
    28   13   42 1
    29   13   43 1
    30   14   15 1
    31   14   44 1
    32   14   45 1
    33   15   16 1
    34   15   46 1
    35   15   47 1
    36   16   17 1
    37   16   27 1
    38   16   48 1
    39   17   18 am
    40   18   19 2
    41   18   20 1
    42   20   21 2
    43   20   22 1
    44   22   26 1
    45   22   23 2
    46   23   24 1
    47   23   49 1
    48   24   25 2
    49   24   50 1
    50   25   26 1
    51   25   51 1
    52   27   28 2
    53   27   29 am
    54   29   30 1
    55   30   31 1
    56   30   52 1
    57   30   53 1
    58   31   54 1
    59   31   55 1
@<TRIPOS>MOLECULE
CHEMBL202655__2
   55    59     0     0     0
SMALL
USER_CHARGES

@<TRIPOS>ATOM
      1 C1         -0.0124    1.3667    0.0716 C.3       1 <0>         0.0256
      2 O1          0.0163   -0.0620    0.0557 O.3       1 <0>        -0.3118
      3 C2          0.6160   -0.6551   -1.0098 C.ar      1 <0>         0.1740
      4 C3          0.6752   -2.0363   -1.0937 C.ar      1 <0>        -0.1886
      5 C4          1.2826   -2.6543   -2.1783 C.ar      1 <0>         0.0093
      6 C5          1.8252   -1.8833   -3.1839 C.ar      1 <0>        -0.1682
      7 C6          1.7742   -0.4944   -3.0997 C.ar      1 <0>         0.1794
      8 C7          1.1654    0.1202   -2.0191 C.ar      1 <0>        -0.2932
      9 O2          2.3206    0.2624   -4.0873 O.3       1 <0>        -0.3030
     10 C8          2.2346    1.6812   -3.9402 C.3       1 <0>         0.0203
     11 C9          2.4671   -2.5002   -4.3974 C.3       1 <0>         0.1986
     12 C10         3.7104   -1.7301   -4.8062 C.3       1 <0>         0.1141
     13 C11         3.7757   -1.6395   -6.3364 C.3       1 <0>        -0.1242
     14 C12         3.8803   -3.0508   -6.9189 C.3       1 <0>        -0.1329
     15 C13         5.1421   -3.7363   -6.3907 C.3       1 <0>        -0.1221
     16 C14         5.0744   -3.8161   -4.8612 C.3       1 <0>         0.0808
     17 N1          4.9145   -2.4406   -4.3405 N.am      1 <0>        -0.5785
     18 C15         5.8061   -1.8777   -3.5011 C.2       1 <0>         0.4947
     19 O3          5.6884   -0.7121   -3.1831 O.2       1 <0>        -0.4972
     20 C16         6.9371   -2.6867   -2.9629 C.2       1 <0>         0.4376
     21 O4          7.1106   -3.8251   -3.3540 O.2       1 <0>        -0.4169
     22 C17         7.8082   -2.1302   -1.9976 C.2       1 <0>        -0.3173
     23 C18         8.9169   -2.7067   -1.3768 C.2       1 <0>        -0.0379
     24 C19         9.5710   -1.9110   -0.4742 C.2       1 <0>        -0.2013
     25 C20         9.1125   -0.6503   -0.2483 C.2       1 <0>        -0.2291
     26 S1          7.7808   -0.5063   -1.2623 S.3       1 <0>         0.3181
     27 C21         3.8270   -4.5694   -4.4653 C.2       1 <0>         0.5223
     28 O5          3.8579   -5.7797   -4.3943 O.2       1 <0>        -0.5301
     29 N2          2.6858   -3.9212   -4.1909 N.am      1 <0>        -0.5985
     30 C22         1.5639   -4.6884   -3.6082 C.3       1 <0>         0.1031
     31 C23         1.3248   -4.1596   -2.1950 C.3       1 <0>        -0.0987
     32 H1          1.0076    1.7508    0.0583 H         1 <0>         0.0566
     33 H2         -0.5486    1.7291   -0.8055 H         1 <0>         0.0564
     34 H3         -0.5182    1.7098    0.9741 H         1 <0>         0.1036
     35 H4          0.2449   -2.6386   -0.3072 H         1 <0>         0.1341
     36 H5          1.1223    1.1978   -1.9606 H         1 <0>         0.1389
     37 H6          2.7080    2.1645   -4.7949 H         1 <0>         0.1047
     38 H7          1.1872    1.9784   -3.8890 H         1 <0>         0.0571
     39 H8          2.7431    1.9831   -3.0246 H         1 <0>         0.0591
     40 H9          1.7560   -2.4020   -5.2177 H         1 <0>         0.0870
     41 H10         3.6826   -0.7312   -4.3707 H         1 <0>         0.1576
     42 H11         2.8734   -1.1565   -6.7116 H         1 <0>         0.0845
     43 H12         4.6499   -1.0585   -6.6300 H         1 <0>         0.0773
     44 H13         3.0041   -3.6294   -6.6265 H         1 <0>         0.0670
     45 H14         3.9281   -2.9915   -8.0062 H         1 <0>         0.0769
     46 H15         5.2099   -4.7423   -6.8048 H         1 <0>         0.0886
     47 H16         6.0194   -3.1610   -6.6865 H         1 <0>         0.0824
     48 H17         5.9713   -4.2846   -4.4559 H         1 <0>         0.1839
     49 H18         9.2380   -3.7147   -1.5936 H         1 <0>         0.1523
     50 H19        10.4393   -2.2797    0.0516 H         1 <0>         0.1402
     51 H20         9.5152    0.0907    0.4263 H         1 <0>         0.1917
     52 H21         0.6673   -4.5481   -4.2119 H         1 <0>         0.0801
     53 H22         1.8215   -5.7468   -3.5681 H         1 <0>         0.1082
     54 H23         2.1294   -4.5019   -1.5443 H         1 <0>         0.0867
     55 H24         0.3764   -4.5479   -1.8238 H         1 <0>         0.0963
@<TRIPOS>BOND
     1    1    2 1
     2    1   32 1
     3    1   33 1
     4    1   34 1
     5    2    3 1
     6    3    8 ar
     7    3    4 ar
     8    4    5 ar
     9    4   35 1
    10    5   31 1
    11    5    6 ar
    12    6    7 ar
    13    6   11 1
    14    7    8 ar
    15    7    9 1
    16    8   36 1
    17    9   10 1
    18   10   37 1
    19   10   38 1
    20   10   39 1
    21   11   29 1
    22   11   12 1
    23   11   40 1
    24   12   17 1
    25   12   13 1
    26   12   41 1
    27   13   14 1
    28   13   42 1
    29   13   43 1
    30   14   15 1
    31   14   44 1
    32   14   45 1
    33   15   16 1
    34   15   46 1
    35   15   47 1
    36   16   17 1
    37   16   27 1
    38   16   48 1
    39   17   18 am
    40   18   19 2
    41   18   20 1
    42   20   21 2
    43   20   22 1
    44   22   26 1
    45   22   23 2
    46   23   24 1
    47   23   49 1
    48   24   25 2
    49   24   50 1
    50   25   26 1
    51   25   51 1
    52   27   28 2
    53   27   29 am
    54   29   30 1
    55   30   31 1
    56   30   52 1
    57   30   53 1
    58   31   54 1
    59   31   55 1
@<TRIPOS>MOLECULE
CHEMBL202655__3
   55    59     0     0     0
SMALL
USER_CHARGES

@<TRIPOS>ATOM
      1 C1         -0.2337    1.1935   -0.0130 C.3       1 <0>         0.0252
      2 O1         -0.4134   -0.2099   -0.2141 O.3       1 <0>        -0.3099
      3 C2          0.2176   -0.7656   -1.2801 C.ar      1 <0>         0.1787
      4 C3          0.0664   -2.1173   -1.5575 C.ar      1 <0>        -0.1791
      5 C4          0.7371   -2.6777   -2.6215 C.ar      1 <0>         0.0017
      6 C5          1.5894   -1.9188   -3.4156 C.ar      1 <0>        -0.1624
      7 C6          1.6657   -0.5569   -3.1923 C.ar      1 <0>         0.1904
      8 C7          0.9937    0.0168   -2.1175 C.ar      1 <0>        -0.3053
      9 O2          2.3408    0.2740   -4.0306 O.3       1 <0>        -0.3088
     10 C8          2.3507    1.6636   -3.6976 C.3       1 <0>         0.0236
     11 C9          2.3959   -2.6340   -4.4608 C.3       1 <0>         0.2038
     12 C10         3.6220   -1.8433   -4.8879 C.3       1 <0>         0.1404
     13 C11         4.4984   -1.4291   -3.7170 C.3       1 <0>        -0.1168
     14 C12         5.2337   -2.6125   -3.0913 C.3       1 <0>        -0.1323
     15 C13         6.0216   -3.3723   -4.1632 C.3       1 <0>        -0.1202
     16 C14         5.0002   -3.8895   -5.1982 C.3       1 <0>         0.1079
     17 N1          4.4062   -2.6860   -5.8173 N.am      1 <0>        -0.5891
     18 C15         4.5650   -2.3750   -7.1179 C.2       1 <0>         0.4954
     19 O3          3.9576   -1.4395   -7.5969 O.2       1 <0>        -0.4968
     20 C16         5.4870   -3.1799   -7.9698 C.2       1 <0>         0.4361
     21 O4          6.1891   -4.0354   -7.4658 O.2       1 <0>        -0.4183
     22 C17         5.5449   -2.9483   -9.3637 C.2       1 <0>        -0.3176
     23 C18         6.3244   -3.5855  -10.3297 C.2       1 <0>        -0.0389
     24 C19         6.1598   -3.1383  -11.6137 C.2       1 <0>        -0.2016
     25 C20         5.2753   -2.1337  -11.8568 C.2       1 <0>        -0.2291
     26 S1          4.6352   -1.7713  -10.3464 S.3       1 <0>         0.3182
     27 C21         3.9106   -4.5804   -4.4190 C.2       1 <0>         0.5113
     28 O5          4.0810   -5.7410   -4.1036 O.2       1 <0>        -0.5321
     29 N2          2.7583   -3.9873   -4.0493 N.am      1 <0>        -0.5980
     30 C22         1.8771   -4.7991   -3.1981 C.3       1 <0>         0.1179
     31 C23         0.5310   -4.1281   -2.9722 C.3       1 <0>        -0.0932
     32 H1          0.8256    1.4074    0.1295 H         1 <0>         0.0569
     33 H2         -0.5997    1.7353   -0.8851 H         1 <0>         0.0570
     34 H3         -0.7899    1.5081    0.8700 H         1 <0>         0.1045
     35 H4         -0.5738   -2.7303   -0.9402 H         1 <0>         0.1378
     36 H5          1.0797    1.0787   -1.9393 H         1 <0>         0.1401
     37 H6          2.9222    2.2125   -4.4461 H         1 <0>         0.1054
     38 H7          1.3276    2.0390   -3.6744 H         1 <0>         0.0578
     39 H8          2.8098    1.7993   -2.7184 H         1 <0>         0.0568
     40 H9          1.7545   -2.7354   -5.3510 H         1 <0>         0.0784
     41 H10         3.3070   -0.9590   -5.4465 H         1 <0>         0.1343
     42 H11         5.2366   -0.6981   -4.0604 H         1 <0>         0.0724
     43 H12         3.8900   -0.9588   -2.9417 H         1 <0>         0.0818
     44 H13         5.9307   -2.2421   -2.3345 H         1 <0>         0.0734
     45 H14         4.5195   -3.2802   -2.6130 H         1 <0>         0.0684
     46 H15         6.7320   -2.7031   -4.6477 H         1 <0>         0.0848
     47 H16         6.5483   -4.2139   -3.7126 H         1 <0>         0.0888
     48 H17         5.4601   -4.5467   -5.9322 H         1 <0>         0.1696
     49 H18         7.0130   -4.3795  -10.0811 H         1 <0>         0.1518
     50 H19         6.7252   -3.5771  -12.4225 H         1 <0>         0.1398
     51 H20         5.0361   -1.6760  -12.8053 H         1 <0>         0.1916
     52 H21         1.7150   -5.7664   -3.6778 H         1 <0>         0.0843
     53 H22         2.3624   -4.9642   -2.2358 H         1 <0>         0.0716
     54 H23         0.0070   -4.6260   -2.1562 H         1 <0>         0.0994
     55 H24        -0.0706   -4.1975   -3.8800 H         1 <0>         0.0919
@<TRIPOS>BOND
     1    1    2 1
     2    1   32 1
     3    1   33 1
     4    1   34 1
     5    2    3 1
     6    3    8 ar
     7    3    4 ar
     8    4    5 ar
     9    4   35 1
    10    5   31 1
    11    5    6 ar
    12    6    7 ar
    13    6   11 1
    14    7    8 ar
    15    7    9 1
    16    8   36 1
    17    9   10 1
    18   10   37 1
    19   10   38 1
    20   10   39 1
    21   11   29 1
    22   11   12 1
    23   11   40 1
    24   12   17 1
    25   12   13 1
    26   12   41 1
    27   13   14 1
    28   13   42 1
    29   13   43 1
    30   14   15 1
    31   14   44 1
    32   14   45 1
    33   15   16 1
    34   15   46 1
    35   15   47 1
    36   16   17 1
    37   16   27 1
    38   16   48 1
    39   17   18 am
    40   18   19 2
    41   18   20 1
    42   20   21 2
    43   20   22 1
    44   22   26 1
    45   22   23 2
    46   23   24 1
    47   23   49 1
    48   24   25 2
    49   24   50 1
    50   25   26 1
    51   25   51 1
    52   27   28 2
    53   27   29 am
    54   29   30 1
    55   30   31 1
    56   30   52 1
    57   30   53 1
    58   31   54 1
    59   31   55 1
@<TRIPOS>MOLECULE
CHEMBL127368
   59    61     0     0     0
SMALL
USER_CHARGES

@<TRIPOS>ATOM
      1 C1          2.6603   -6.5799    6.9186 C.3       1 <0>         0.0207
      2 O1          1.5136   -5.9318    7.4729 O.3       1 <0>        -0.2972
      3 C2          1.3761   -4.6018    7.2249 C.ar      1 <0>         0.1404
      4 C3          2.3188   -3.9415    6.4627 C.ar      1 <0>        -0.1487
      5 C4          2.1760   -2.5714    6.2074 C.ar      1 <0>        -0.0931
      6 C5          1.0762   -1.8762    6.7271 C.ar      1 <0>        -0.1842
      7 C6          0.1374   -2.5430    7.4885 C.ar      1 <0>         0.1411
      8 C7          0.2800   -3.9078    7.7361 C.ar      1 <0>         0.0727
      9 O2         -0.6483   -4.5617    8.4808 O.3       1 <0>        -0.3111
     10 C8         -0.4315   -4.6090    9.8925 C.3       1 <0>         0.0359
     11 O3         -0.9304   -1.8691    7.9933 O.3       1 <0>        -0.2962
     12 C9         -1.0168   -0.4741    7.6961 C.3       1 <0>         0.0215
     13 C10         3.1784   -1.8644    5.3962 C.2       1 <0>         0.3708
     14 O4          4.0767   -2.4849    4.8649 O.2       1 <0>        -0.3571
     15 C11         3.0915   -0.3844    5.2260 C.2       1 <0>         0.5013
     16 O5          2.4999    0.0835    4.2751 O.2       1 <0>        -0.4819
     17 N1          3.6617    0.4211    6.1155 N.am      1 <0>        -0.5819
     18 C12         3.4250    1.8713    6.1753 C.3       1 <0>         0.0930
     19 C13         2.5015    2.0741    7.3774 C.3       1 <0>        -0.1245
     20 C14         3.1673    1.5028    8.6334 C.3       1 <0>        -0.1185
     21 C15         3.6232    0.0504    8.4641 C.3       1 <0>        -0.1240
     22 C16         4.5057   -0.0653    7.2204 C.3       1 <0>         0.0770
     23 C17         4.9874   -1.4479    6.9306 C.2       1 <0>         0.4605
     24 O6          4.7158   -2.3747    7.6556 O.2       1 <0>        -0.4126
     25 O7          5.7447   -1.6602    5.8318 O.3       1 <0>        -0.3274
     26 C18         6.5915   -0.5976    5.3940 C.3       1 <0>         0.0578
     27 C19         6.1286   -0.0496    4.0434 C.3       1 <0>        -0.1476
     28 C20         5.7703    1.4323    4.1693 C.3       1 <0>        -0.1621
     29 C21         4.5672    1.7731    3.2922 C.3       1 <0>         0.0779
     30 O8          3.7381    2.7513    3.9128 O.3       1 <0>        -0.3800
     31 C22         2.8799    2.3735    4.8798 C.2       1 <0>         0.5092
     32 O9          1.6895    2.4559    4.6875 O.2       1 <0>        -0.4178
     33 H1          3.5651   -6.1141    7.3090 H         1 <0>         0.0618
     34 H2          2.6483   -7.6352    7.1911 H         1 <0>         0.1074
     35 H3          2.6420   -6.4847    5.8329 H         1 <0>         0.0601
     36 H4          3.1655   -4.4804    6.0639 H         1 <0>         0.1501
     37 H5          0.9631   -0.8199    6.5325 H         1 <0>         0.1383
     38 H6         -0.3995   -3.5943   10.2893 H         1 <0>         0.0472
     39 H7         -1.2443   -5.1590   10.3666 H         1 <0>         0.0969
     40 H8          0.5146   -5.1096   10.0982 H         1 <0>         0.0480
     41 H9         -1.9128   -0.0590    8.1576 H         1 <0>         0.1089
     42 H10        -0.1367    0.0360    8.0877 H         1 <0>         0.0557
     43 H11        -1.0667   -0.3351    6.6161 H         1 <0>         0.0609
     44 H12         4.3783    2.3694    6.3887 H         1 <0>         0.1204
     45 H13         2.3185    3.1396    7.5193 H         1 <0>         0.0938
     46 H14         1.5549    1.5633    7.2041 H         1 <0>         0.0804
     47 H15         4.0358    2.1193    8.8842 H         1 <0>         0.0736
     48 H16         2.4569    1.5554    9.4639 H         1 <0>         0.0860
     49 H17         4.1914   -0.2541    9.3429 H         1 <0>         0.0950
     50 H18         2.7501   -0.5925    8.3544 H         1 <0>         0.0830
     51 H19         5.3556    0.6143    7.3333 H         1 <0>         0.1293
     52 H20         6.6053    0.2035    6.1299 H         1 <0>         0.0697
     53 H21         7.6126   -0.9817    5.2863 H         1 <0>         0.1027
     54 H22         6.9471   -0.1540    3.3229 H         1 <0>         0.0886
     55 H23         5.2766   -0.6157    3.6804 H         1 <0>         0.0862
     56 H24         5.5591    1.6725    5.2087 H         1 <0>         0.0711
     57 H25         6.6283    2.0303    3.8419 H         1 <0>         0.0845
     58 H26         4.9351    2.1839    2.3413 H         1 <0>         0.1072
     59 H27         3.9957    0.8772    3.0665 H         1 <0>         0.0792
@<TRIPOS>BOND
     1    1    2 1
     2    1   33 1
     3    1   34 1
     4    1   35 1
     5    2    3 1
     6    3    8 ar
     7    3    4 ar
     8    4    5 ar
     9    4   36 1
    10    5    6 ar
    11    5   13 1
    12    6    7 ar
    13    6   37 1
    14    7    8 ar
    15    7   11 1
    16    8    9 1
    17    9   10 1
    18   10   38 1
    19   10   39 1
    20   10   40 1
    21   11   12 1
    22   12   41 1
    23   12   42 1
    24   12   43 1
    25   13   14 2
    26   13   15 1
    27   15   16 2
    28   15   17 am
    29   17   22 1
    30   17   18 1
    31   18   31 1
    32   18   19 1
    33   18   44 1
    34   19   20 1
    35   19   45 1
    36   19   46 1
    37   20   21 1
    38   20   47 1
    39   20   48 1
    40   21   22 1
    41   21   49 1
    42   21   50 1
    43   22   23 1
    44   22   51 1
    45   23   24 2
    46   23   25 1
    47   25   26 1
    48   26   27 1
    49   26   52 1
    50   26   53 1
    51   27   28 1
    52   27   54 1
    53   27   55 1
    54   28   29 1
    55   28   56 1
    56   28   57 1
    57   29   30 1
    58   29   58 1
    59   29   59 1
    60   30   31 1
    61   31   32 2
@<TRIPOS>MOLECULE
CHEMBL338272
   62    64     0     0     0
SMALL
USER_CHARGES

@<TRIPOS>ATOM
      1 C1         -0.0187    1.5258    0.0104 C.3       1 <0>        -0.1552
      2 C2          0.0021   -0.0041    0.0020 C.3       1 <0>        -0.1067
      3 C3          0.7182   -0.4975   -1.2568 C.3       1 <0>        -0.0876
      4 C4         -0.0218    0.0093   -2.4963 C.3       1 <0>        -0.1464
      5 C5          2.1536    0.0321   -1.2676 C.3       1 <0>        -0.1454
      6 C6          0.7386   -2.0043   -1.2651 C.2       1 <0>         0.3661
      7 O1          0.2326   -2.6202   -0.3576 O.2       1 <0>        -0.4188
      8 C7          1.3836   -2.7349   -2.3934 C.2       1 <0>         0.5019
      9 O2          1.8921   -2.1161   -3.3052 O.2       1 <0>        -0.4938
     10 N1          1.4018   -4.0825   -2.4008 N.am      1 <0>        -0.5831
     11 C8          0.8253   -4.9784   -1.3766 C.3       1 <0>         0.1451
     12 H1         -0.2482   -4.8110   -1.2891 H         1 <0>         0.1177
     13 C9          1.1073   -6.4245   -1.8905 C.3       1 <0>        -0.0976
     14 C10         2.6505   -6.5888   -1.7236 C.3       1 <0>        -0.1316
     15 C11         3.2489   -5.5986   -2.7500 C.3       1 <0>        -0.1367
     16 C12         2.0021   -4.9591   -3.4474 C.3       1 <0>         0.1253
     17 C13         1.0117   -6.1713   -3.4385 C.3       1 <0>        -0.1320
     18 C14         1.4984   -4.7536   -0.0471 C.2       1 <0>         0.4751
     19 O3          2.5711   -4.1996    0.0009 O.2       1 <0>        -0.5041
     20 O4          0.9063   -5.1689    1.0837 O.3       1 <0>        -0.3435
     21 C15         1.6010   -4.9229    2.3079 C.3       1 <0>         0.0683
     22 C16         0.7774   -5.4625    3.4790 C.3       1 <0>        -0.1178
     23 C17         1.5213   -5.1991    4.7898 C.3       1 <0>        -0.1107
     24 C18         0.6977   -5.7387    5.9609 C.3       1 <0>        -0.0793
     25 C19         1.4304   -5.4793    7.2520 C.ar      1 <0>        -0.0836
     26 C20         2.3217   -6.4159    7.7412 C.ar      1 <0>        -0.1181
     27 C21         2.9937   -6.1779    8.9255 C.ar      1 <0>        -0.1182
     28 C22         2.7749   -5.0031    9.6204 C.ar      1 <0>        -0.1248
     29 C23         1.8844   -4.0661    9.1307 C.ar      1 <0>        -0.1180
     30 C24         1.2155   -4.3022    7.9442 C.ar      1 <0>        -0.1180
     31 H2          1.0039    1.9031    0.0027 H         1 <0>         0.0600
     32 H3         -0.5459    1.8868   -0.8726 H         1 <0>         0.0605
     33 H4         -0.5289    1.8773    0.9072 H         1 <0>         0.0582
     34 H5          0.5293   -0.3651    0.8851 H         1 <0>         0.0669
     35 H6         -1.0205   -0.3814    0.0098 H         1 <0>         0.0686
     36 H7         -0.0366    1.0992   -2.4903 H         1 <0>         0.0763
     37 H8          0.4884   -0.3422   -3.3931 H         1 <0>         0.0782
     38 H9         -1.0444   -0.3679   -2.4886 H         1 <0>         0.0564
     39 H10         2.6808   -0.3290   -0.3846 H         1 <0>         0.0560
     40 H11         2.6638   -0.3194   -2.1644 H         1 <0>         0.0777
     41 H12         2.1388    1.1220   -1.2617 H         1 <0>         0.0758
     42 H13         0.4780   -7.2158   -1.4832 H         1 <0>         0.1337
     43 H14         2.9556   -6.3209   -0.7121 H         1 <0>         0.0688
     44 H15         2.9530   -7.6096   -1.9569 H         1 <0>         0.0802
     45 H16         3.8372   -4.8340   -2.2428 H         1 <0>         0.0788
     46 H17         3.8610   -6.1297   -3.4790 H         1 <0>         0.0816
     47 H18         2.1851   -4.4863   -4.4123 H         1 <0>         0.1316
     48 H19         1.3866   -7.0151   -4.0177 H         1 <0>         0.1008
     49 H20         0.0075   -5.8806   -3.7469 H         1 <0>         0.0854
     50 H21         2.5690   -5.4235    2.2833 H         1 <0>         0.0657
     51 H22         1.7498   -3.8503    2.4321 H         1 <0>         0.0663
     52 H23        -0.1905   -4.9619    3.5036 H         1 <0>         0.0766
     53 H24         0.6287   -6.5351    3.3549 H         1 <0>         0.0759
     54 H25         2.4892   -5.6997    4.7652 H         1 <0>         0.0675
     55 H26         1.6701   -4.1265    4.9140 H         1 <0>         0.0675
     56 H27        -0.2702   -5.2381    5.9855 H         1 <0>         0.0749
     57 H28         0.5490   -6.8113    5.8368 H         1 <0>         0.0749
     58 H29         2.4926   -7.3337    7.1983 H         1 <0>         0.1210
     59 H30         3.6895   -6.9100    9.3080 H         1 <0>         0.1217
     60 H31         3.2995   -4.8175   10.5460 H         1 <0>         0.1212
     61 H32         1.7132   -3.1484    9.6738 H         1 <0>         0.1217
     62 H33         0.5225   -3.5684    7.5597 H         1 <0>         0.1210
@<TRIPOS>BOND
     1    1    2 1
     2    1   31 1
     3    1   32 1
     4    1   33 1
     5    2    3 1
     6    2   34 1
     7    2   35 1
     8    3    4 1
     9    3    5 1
    10    3    6 1
    11    4   36 1
    12    4   37 1
    13    4   38 1
    14    5   39 1
    15    5   40 1
    16    5   41 1
    17    6    7 2
    18    6    8 1
    19    8    9 2
    20    8   10 am
    21   10   16 1
    22   10   11 1
    23   11   12 1
    24   11   13 1
    25   11   18 1
    26   13   17 1
    27   13   14 1
    28   13   42 1
    29   14   15 1
    30   14   43 1
    31   14   44 1
    32   15   16 1
    33   15   45 1
    34   15   46 1
    35   16   17 1
    36   16   47 1
    37   17   48 1
    38   17   49 1
    39   18   19 2
    40   18   20 1
    41   20   21 1
    42   21   22 1
    43   21   50 1
    44   21   51 1
    45   22   23 1
    46   22   52 1
    47   22   53 1
    48   23   24 1
    49   23   54 1
    50   23   55 1
    51   24   25 1
    52   24   56 1
    53   24   57 1
    54   25   30 ar
    55   25   26 ar
    56   26   27 ar
    57   26   58 1
    58   27   28 ar
    59   27   59 1
    60   28   29 ar
    61   28   60 1
    62   29   30 ar
    63   29   61 1
    64   30   62 1
@<TRIPOS>MOLECULE
CHEMBL338272__1
   62    64     0     0     0
SMALL
USER_CHARGES

@<TRIPOS>ATOM
      1 C1         -0.0187    1.5258    0.0104 C.3       1 <0>        -0.1552
      2 C2          0.0021   -0.0041    0.0020 C.3       1 <0>        -0.1067
      3 C3          0.7182   -0.4975   -1.2568 C.3       1 <0>        -0.0875
      4 C4         -0.0218    0.0093   -2.4963 C.3       1 <0>        -0.1463
      5 C5          2.1536    0.0321   -1.2676 C.3       1 <0>        -0.1455
      6 C6          0.7386   -2.0043   -1.2651 C.2       1 <0>         0.3668
      7 O1          0.2326   -2.6202   -0.3576 O.2       1 <0>        -0.4188
      8 C7          1.3836   -2.7349   -2.3934 C.2       1 <0>         0.5021
      9 O2          1.8921   -2.1161   -3.3052 O.2       1 <0>        -0.4937
     10 N1          1.4018   -4.0825   -2.4008 N.am      1 <0>        -0.5834
     11 C8          0.8253   -4.9784   -1.3766 C.3       1 <0>         0.1479
     12 H1         -0.2530   -4.8333   -1.3113 H         1 <0>         0.1192
     13 C9          1.1481   -6.4241   -1.8672 C.3       1 <0>        -0.0987
     14 C10         0.2248   -6.6141   -3.1112 C.3       1 <0>        -0.1196
     15 C11         0.7906   -5.6242   -4.1562 C.3       1 <0>        -0.1389
     16 C12         2.0021   -4.9591   -3.4474 C.3       1 <0>         0.1279
     17 C13         2.5268   -6.1555   -2.5718 C.3       1 <0>        -0.1406
     18 C14         1.4680   -4.7232   -0.0376 C.2       1 <0>         0.4704
     19 O3          2.5274   -4.1455    0.0237 O.2       1 <0>        -0.5058
     20 O4          0.8635   -5.1377    1.0869 O.3       1 <0>        -0.3435
     21 C15         1.5294   -4.8620    2.3209 C.3       1 <0>         0.0683
     22 C16         0.6955   -5.4053    3.4829 C.3       1 <0>        -0.1177
     23 C17         1.4084   -5.1102    4.8040 C.3       1 <0>        -0.1108
     24 C18         0.5745   -5.6535    5.9661 C.3       1 <0>        -0.0793
     25 C19         1.2768   -5.3628    7.2674 C.ar      1 <0>        -0.0835
     26 C20         2.1784   -6.2740    7.7847 C.ar      1 <0>        -0.1181
     27 C21         2.8226   -6.0073    8.9784 C.ar      1 <0>        -0.1182
     28 C22         2.5654   -4.8293    9.6545 C.ar      1 <0>        -0.1248
     29 C23         1.6644   -3.9178    9.1366 C.ar      1 <0>        -0.1180
     30 C24         1.0235   -4.1825    7.9408 C.ar      1 <0>        -0.1180
     31 H2          1.0039    1.9031    0.0027 H         1 <0>         0.0601
     32 H3         -0.5459    1.8868   -0.8726 H         1 <0>         0.0605
     33 H4         -0.5289    1.8773    0.9072 H         1 <0>         0.0582
     34 H5          0.5293   -0.3651    0.8851 H         1 <0>         0.0669
     35 H6         -1.0205   -0.3814    0.0098 H         1 <0>         0.0685
     36 H7         -0.0366    1.0992   -2.4903 H         1 <0>         0.0764
     37 H8          0.4884   -0.3422   -3.3931 H         1 <0>         0.0782
     38 H9         -1.0444   -0.3679   -2.4886 H         1 <0>         0.0562
     39 H10         2.6808   -0.3290   -0.3846 H         1 <0>         0.0564
     40 H11         2.6638   -0.3194   -2.1644 H         1 <0>         0.0777
     41 H12         2.1388    1.1220   -1.2617 H         1 <0>         0.0758
     42 H13         1.1283   -7.2090   -1.1112 H         1 <0>         0.1292
     43 H14         0.2885   -7.6374   -3.4811 H         1 <0>         0.0823
     44 H15        -0.8060   -6.3601   -2.8638 H         1 <0>         0.0749
     45 H16         1.1170   -6.1583   -5.0486 H         1 <0>         0.0856
     46 H17         0.0432   -4.8736   -4.4130 H         1 <0>         0.0741
     47 H18         2.7265   -4.4806   -4.1065 H         1 <0>         0.1293
     48 H19         3.2970   -5.8463   -1.8652 H         1 <0>         0.0843
     49 H20         2.8493   -6.9999   -3.1810 H         1 <0>         0.0995
     50 H21         2.5082   -5.3417    2.3206 H         1 <0>         0.0659
     51 H22         1.6527   -3.7850    2.4345 H         1 <0>         0.0664
     52 H23        -0.2833   -4.9256    3.4831 H         1 <0>         0.0765
     53 H24         0.5722   -6.4823    3.3692 H         1 <0>         0.0758
     54 H25         2.3872   -5.5899    4.8038 H         1 <0>         0.0676
     55 H26         1.5317   -4.0332    4.9177 H         1 <0>         0.0676
     56 H27        -0.4043   -5.1738    5.9663 H         1 <0>         0.0748
     57 H28         0.4512   -6.7305    5.8524 H         1 <0>         0.0748
     58 H29         2.3794   -7.1943    7.2565 H         1 <0>         0.1210
     59 H30         3.5265   -6.7195    9.3829 H         1 <0>         0.1217
     60 H31         3.0682   -4.6213   10.5874 H         1 <0>         0.1211
     61 H32         1.4632   -2.9976    9.6650 H         1 <0>         0.1217
     62 H33         0.3223   -3.4686    7.5344 H         1 <0>         0.1210
@<TRIPOS>BOND
     1    1    2 1
     2    1   31 1
     3    1   32 1
     4    1   33 1
     5    2    3 1
     6    2   34 1
     7    2   35 1
     8    3    4 1
     9    3    5 1
    10    3    6 1
    11    4   36 1
    12    4   37 1
    13    4   38 1
    14    5   39 1
    15    5   40 1
    16    5   41 1
    17    6    7 2
    18    6    8 1
    19    8    9 2
    20    8   10 am
    21   10   16 1
    22   10   11 1
    23   11   12 1
    24   11   13 1
    25   11   18 1
    26   13   17 1
    27   13   14 1
    28   13   42 1
    29   14   15 1
    30   14   43 1
    31   14   44 1
    32   15   16 1
    33   15   45 1
    34   15   46 1
    35   16   17 1
    36   16   47 1
    37   17   48 1
    38   17   49 1
    39   18   19 2
    40   18   20 1
    41   20   21 1
    42   21   22 1
    43   21   50 1
    44   21   51 1
    45   22   23 1
    46   22   52 1
    47   22   53 1
    48   23   24 1
    49   23   54 1
    50   23   55 1
    51   24   25 1
    52   24   56 1
    53   24   57 1
    54   25   30 ar
    55   25   26 ar
    56   26   27 ar
    57   26   58 1
    58   27   28 ar
    59   27   59 1
    60   28   29 ar
    61   28   60 1
    62   29   30 ar
    63   29   61 1
    64   30   62 1
@<TRIPOS>MOLECULE
CHEMBL119580
   68    70     0     0     0
SMALL
USER_CHARGES

@<TRIPOS>ATOM
      1 C1         -0.5664    1.3793    0.5764 C.3       1 <0>        -0.1554
      2 C2         -0.4093   -0.1416    0.5219 C.3       1 <0>        -0.1081
      3 C3          0.6527   -0.5811    1.5319 C.3       1 <0>        -0.0869
      4 C4          1.9881    0.0822    1.1889 C.3       1 <0>        -0.1449
      5 C5          0.2221   -0.1629    2.9392 C.3       1 <0>        -0.1464
      6 C6          0.8075   -2.0791    1.4783 C.2       1 <0>         0.3679
      7 O1          0.1374   -2.7284    0.7113 O.2       1 <0>        -0.4083
      8 C7          1.7877   -2.7597    2.3720 C.2       1 <0>         0.4724
      9 O2          2.3587   -2.1295    3.2379 O.2       1 <0>        -0.4773
     10 N1          2.0396   -4.0748    2.2183 N.am      1 <0>        -0.5761
     11 C8          1.5347   -4.8017    1.0456 C.3       1 <0>         0.0788
     12 C9          2.7075   -5.5138    0.3643 C.3       1 <0>        -0.1388
     13 C10         3.4282   -6.3946    1.3875 C.3       1 <0>        -0.1192
     14 C11         3.9828   -5.5207    2.5148 C.3       1 <0>        -0.1230
     15 C12         2.8295   -4.8074    3.2174 C.3       1 <0>         0.1195
     16 H1          2.1976   -5.5431    3.7149 H         1 <0>         0.1023
     17 C13         3.3804   -3.8406    4.2337 C.2       1 <0>         0.3272
     18 O3          4.2655   -3.0715    3.9219 O.2       1 <0>        -0.4339
     19 S1          2.7764   -3.8279    5.7798 S.3       1 <0>        -0.1132
     20 C14         3.7295   -2.5285    6.6127 C.3       1 <0>        -0.0902
     21 C15         3.2675   -2.4094    8.0664 C.3       1 <0>        -0.0966
     22 C16         4.0713   -1.3135    8.7689 C.3       1 <0>        -0.0012
     23 C17         3.7583    0.0201    8.1406 C.ar      1 <0>        -0.0732
     24 C18         4.7384    0.9912    8.0557 C.ar      1 <0>        -0.1128
     25 C19         4.4513    2.2145    7.4794 C.ar      1 <0>        -0.1166
     26 C20         3.1842    2.4664    6.9876 C.ar      1 <0>        -0.1211
     27 C21         2.2043    1.4949    7.0717 C.ar      1 <0>        -0.1143
     28 C22         2.4927    0.2702    7.6441 C.ar      1 <0>        -0.1138
     29 C23         3.7037   -1.2791   10.2300 C.ar      1 <0>        -0.0723
     30 C24         2.3817   -1.1340   10.6068 C.ar      1 <0>        -0.1091
     31 C25         2.0444   -1.1024   11.9470 C.ar      1 <0>        -0.1177
     32 C26         3.0292   -1.2164   12.9104 C.ar      1 <0>        -0.1214
     33 C27         4.3512   -1.3624   12.5336 C.ar      1 <0>        -0.1179
     34 C28         4.6879   -1.3982   11.1933 C.ar      1 <0>        -0.1137
     35 H2          0.3849    1.8519    0.3320 H         1 <0>         0.0596
     36 H3         -1.3230    1.6924   -0.1431 H         1 <0>         0.0584
     37 H4         -0.8732    1.6773    1.5790 H         1 <0>         0.0601
     38 H5         -1.3607   -0.6141    0.7663 H         1 <0>         0.0694
     39 H6         -0.1025   -0.4395   -0.4807 H         1 <0>         0.0684
     40 H7          1.8761    1.1658    1.2277 H         1 <0>         0.0763
     41 H8          2.7447   -0.2308    1.9084 H         1 <0>         0.0755
     42 H9          2.2948   -0.2157    0.1863 H         1 <0>         0.0556
     43 H10        -0.7293   -0.6354    3.1836 H         1 <0>         0.0558
     44 H11         0.9787   -0.4759    3.6587 H         1 <0>         0.0820
     45 H12         0.1101    0.9207    2.9780 H         1 <0>         0.0741
     46 H13         0.7949   -5.5369    1.3621 H         1 <0>         0.0774
     47 H14         1.0791   -4.0987    0.3482 H         1 <0>         0.1275
     48 H15         2.3331   -6.1340   -0.4501 H         1 <0>         0.0835
     49 H16         3.4024   -4.7732   -0.0317 H         1 <0>         0.0679
     50 H17         2.7266   -7.1190    1.8012 H         1 <0>         0.0698
     51 H18         4.2482   -6.9215    0.8995 H         1 <0>         0.0750
     52 H19         4.5159   -6.1459    3.2310 H         1 <0>         0.0825
     53 H20         4.6656   -4.7800    2.0986 H         1 <0>         0.0801
     54 H21         4.7891   -2.7826    6.5879 H         1 <0>         0.0914
     55 H22         3.5716   -1.5784    6.1023 H         1 <0>         0.1027
     56 H23         2.2078   -2.1553    8.0912 H         1 <0>         0.0808
     57 H24         3.4253   -3.3596    8.5768 H         1 <0>         0.0816
     58 H25         5.1363   -1.5221    8.6670 H         1 <0>         0.0904
     59 H26         5.7284    0.7944    8.4400 H         1 <0>         0.1195
     60 H27         5.2168    2.9734    7.4137 H         1 <0>         0.1208
     61 H28         2.9597    3.4224    6.5380 H         1 <0>         0.1200
     62 H29         1.2143    1.6919    6.6877 H         1 <0>         0.1208
     63 H30         1.7282   -0.4902    7.7065 H         1 <0>         0.1217
     64 H31         1.6123   -1.0449    9.8542 H         1 <0>         0.1202
     65 H32         1.0116   -0.9884   12.2415 H         1 <0>         0.1217
     66 H33         2.7659   -1.1911   13.9575 H         1 <0>         0.1211
     67 H34         5.1206   -1.4511   13.2862 H         1 <0>         0.1221
     68 H35         5.7203   -1.5160   10.8989 H         1 <0>         0.1213
@<TRIPOS>BOND
     1    1    2 1
     2    1   35 1
     3    1   36 1
     4    1   37 1
     5    2    3 1
     6    2   38 1
     7    2   39 1
     8    3    4 1
     9    3    5 1
    10    3    6 1
    11    4   40 1
    12    4   41 1
    13    4   42 1
    14    5   43 1
    15    5   44 1
    16    5   45 1
    17    6    7 2
    18    6    8 1
    19    8    9 2
    20    8   10 am
    21   10   15 1
    22   10   11 1
    23   11   12 1
    24   11   46 1
    25   11   47 1
    26   12   13 1
    27   12   48 1
    28   12   49 1
    29   13   14 1
    30   13   50 1
    31   13   51 1
    32   14   15 1
    33   14   52 1
    34   14   53 1
    35   15   16 1
    36   15   17 1
    37   17   18 2
    38   17   19 1
    39   19   20 1
    40   20   21 1
    41   20   54 1
    42   20   55 1
    43   21   22 1
    44   21   56 1
    45   21   57 1
    46   22   23 1
    47   22   29 1
    48   22   58 1
    49   23   28 ar
    50   23   24 ar
    51   24   25 ar
    52   24   59 1
    53   25   26 ar
    54   25   60 1
    55   26   27 ar
    56   26   61 1
    57   27   28 ar
    58   27   62 1
    59   28   63 1
    60   29   34 ar
    61   29   30 ar
    62   30   31 ar
    63   30   64 1
    64   31   32 ar
    65   31   65 1
    66   32   33 ar
    67   32   66 1
    68   33   34 ar
    69   33   67 1
    70   34   68 1
@<TRIPOS>MOLECULE
CHEMBL340105
   67    69     0     0     0
SMALL
USER_CHARGES

@<TRIPOS>ATOM
      1 C1         -0.5564    3.2765   -1.4536 C.3       1 <0>        -0.1555
      2 C2         -0.0032    1.8782   -1.1714 C.3       1 <0>        -0.1079
      3 C3          0.6246    1.3112   -2.4463 C.3       1 <0>        -0.0878
      4 C4         -0.4378    1.2273   -3.5442 C.3       1 <0>        -0.1454
      5 C5          1.7614    2.2264   -2.9056 C.3       1 <0>        -0.1457
      6 C6          1.1695   -0.0660   -2.1683 C.2       1 <0>         0.3663
      7 O1          1.0664   -0.5448   -1.0642 O.2       1 <0>        -0.4137
      8 C7          1.8359   -0.8376   -3.2561 C.2       1 <0>         0.4966
      9 O2          1.9395   -0.3565   -4.3656 O.2       1 <0>        -0.4993
     10 N1          2.3233   -2.0693   -3.0075 N.am      1 <0>        -0.5852
     11 C8          2.2601   -2.7733   -1.7138 C.3       1 <0>         0.0945
     12 C9          2.3545   -4.2767   -2.0753 C.3       1 <0>        -0.1373
     13 C10         3.3585   -4.2502   -3.2580 C.3       1 <0>        -0.1193
     14 C11         3.0003   -2.9360   -3.9833 C.3       1 <0>         0.0822
     15 H1          3.9095   -2.4524   -4.3405 H         1 <0>         0.1080
     16 C12         2.0791   -3.2213   -5.1413 C.2       1 <0>         0.3510
     17 O3          0.8978   -2.9901   -5.0443 O.2       1 <0>        -0.4305
     18 C13         2.6321   -3.7950   -6.4204 C.3       1 <0>        -0.1667
     19 C14         1.4955   -3.9874   -7.4264 C.3       1 <0>        -0.1100
     20 C15         2.0569   -4.5699   -8.7250 C.3       1 <0>        -0.1102
     21 C16         0.9202   -4.7623   -9.7309 C.3       1 <0>        -0.0058
     22 C17         1.4885   -5.2195  -11.0496 C.ar      1 <0>        -0.0843
     23 C18         2.3323   -6.3137  -11.0959 C.ar      1 <0>        -0.0857
     24 C19         2.8537   -6.7342  -12.3047 C.ar      1 <0>        -0.1506
     25 C20         2.5307   -6.0592  -13.4697 C.ar      1 <0>         0.0962
     26 C21         1.6855   -4.9635  -13.4221 C.ar      1 <0>        -0.1501
     27 C22         1.1612   -4.5481  -12.2129 C.ar      1 <0>        -0.0837
     28 F1          3.0402   -6.4692  -14.6519 F         1 <0>        -0.1395
     29 C23        -0.0404   -5.8004   -9.2109 C.ar      1 <0>        -0.0806
     30 C24         0.4313   -7.0323   -8.7972 C.ar      1 <0>        -0.0871
     31 C25        -0.4487   -7.9850   -8.3197 C.ar      1 <0>        -0.1507
     32 C26        -1.8032   -7.7052   -8.2557 C.ar      1 <0>         0.0956
     33 C27        -2.2745   -6.4711   -8.6703 C.ar      1 <0>        -0.1493
     34 C28        -1.3920   -5.5181   -9.1425 C.ar      1 <0>        -0.0831
     35 F2         -2.6644   -8.6359   -7.7895 F         1 <0>        -0.1399
     36 H2          0.2535    3.9284   -1.7808 H         1 <0>         0.0600
     37 H3         -1.3133    3.2167   -2.2358 H         1 <0>         0.0601
     38 H4         -1.0037    3.6804   -0.5454 H         1 <0>         0.0582
     39 H5          0.7537    1.9380   -0.3893 H         1 <0>         0.0685
     40 H6         -0.8131    1.2262   -0.8442 H         1 <0>         0.0685
     41 H7         -0.8319    2.2235   -3.7452 H         1 <0>         0.0747
     42 H8          0.0095    0.8234   -4.4524 H         1 <0>         0.0782
     43 H9         -1.2477    0.5753   -3.2170 H         1 <0>         0.0558
     44 H10         2.5183    2.2862   -2.1235 H         1 <0>         0.0557
     45 H11         2.2087    1.8224   -3.8138 H         1 <0>         0.0778
     46 H12         1.3673    3.2225   -3.1066 H         1 <0>         0.0754
     47 H13         3.0990   -2.4817   -1.0819 H         1 <0>         0.0780
     48 H14         1.3154   -2.5623   -1.2127 H         1 <0>         0.0976
     49 H15         2.7497   -4.8553   -1.2403 H         1 <0>         0.0940
     50 H16         1.3864   -4.6636   -2.3933 H         1 <0>         0.0793
     51 H17         4.3849   -4.2256   -2.8921 H         1 <0>         0.0935
     52 H18         3.2026   -5.1055   -3.9154 H         1 <0>         0.0895
     53 H19         3.3725   -3.1109   -6.8352 H         1 <0>         0.1009
     54 H20         3.1014   -4.7569   -6.2141 H         1 <0>         0.0988
     55 H21         0.7551   -4.6714   -7.0116 H         1 <0>         0.0713
     56 H22         1.0261   -3.0255   -7.6326 H         1 <0>         0.0707
     57 H23         2.7972   -3.8858   -9.1398 H         1 <0>         0.0738
     58 H24         2.5262   -5.5318   -8.5187 H         1 <0>         0.0691
     59 H25         0.3943   -3.8178   -9.8699 H         1 <0>         0.0927
     60 H26         2.5844   -6.8398  -10.1870 H         1 <0>         0.1321
     61 H27         3.5131   -7.5887  -12.3406 H         1 <0>         0.1358
     62 H28         1.4332   -4.4361  -14.3301 H         1 <0>         0.1362
     63 H29         0.4984   -3.6962  -12.1761 H         1 <0>         0.1333
     64 H30         1.4878   -7.2504   -8.8475 H         1 <0>         0.1317
     65 H31        -0.0800   -8.9474   -7.9969 H         1 <0>         0.1352
     66 H32        -3.3309   -6.2519   -8.6212 H         1 <0>         0.1356
     67 H33        -1.7589   -4.5538   -9.4618 H         1 <0>         0.1326
@<TRIPOS>BOND
     1    1    2 1
     2    1   36 1
     3    1   37 1
     4    1   38 1
     5    2    3 1
     6    2   39 1
     7    2   40 1
     8    3    4 1
     9    3    5 1
    10    3    6 1
    11    4   41 1
    12    4   42 1
    13    4   43 1
    14    5   44 1
    15    5   45 1
    16    5   46 1
    17    6    7 2
    18    6    8 1
    19    8    9 2
    20    8   10 am
    21   10   14 1
    22   10   11 1
    23   11   12 1
    24   11   47 1
    25   11   48 1
    26   12   13 1
    27   12   49 1
    28   12   50 1
    29   13   14 1
    30   13   51 1
    31   13   52 1
    32   14   15 1
    33   14   16 1
    34   16   17 2
    35   16   18 1
    36   18   19 1
    37   18   53 1
    38   18   54 1
    39   19   20 1
    40   19   55 1
    41   19   56 1
    42   20   21 1
    43   20   57 1
    44   20   58 1
    45   21   22 1
    46   21   29 1
    47   21   59 1
    48   22   27 ar
    49   22   23 ar
    50   23   24 ar
    51   23   60 1
    52   24   25 ar
    53   24   61 1
    54   25   26 ar
    55   25   28 1
    56   26   27 ar
    57   26   62 1
    58   27   63 1
    59   29   34 ar
    60   29   30 ar
    61   30   31 ar
    62   30   64 1
    63   31   32 ar
    64   31   65 1
    65   32   33 ar
    66   32   35 1
    67   33   34 ar
    68   33   66 1
    69   34   67 1
@<TRIPOS>MOLECULE
CHEMBL435686
   54    55     0     0     0
SMALL
USER_CHARGES

@<TRIPOS>ATOM
      1 C1         -0.0187    1.5258    0.0104 C.3       1 <0>        -0.1556
      2 C2          0.0021   -0.0041    0.0020 C.3       1 <0>        -0.1076
      3 C3         -1.4333   -0.5336    0.0129 C.3       1 <0>        -0.0877
      4 C4         -2.1494   -0.0402    1.2717 C.3       1 <0>        -0.1463
      5 C5         -2.1733   -0.0268   -1.2266 C.3       1 <0>        -0.1459
      6 C6         -1.4129   -2.0405    0.0046 C.2       1 <0>         0.3685
      7 O1         -0.3588   -2.6301   -0.0086 O.2       1 <0>        -0.4128
      8 C7         -2.6937   -2.8034    0.0127 C.2       1 <0>         0.4994
      9 O2         -3.7529   -2.2110    0.0260 O.2       1 <0>        -0.4894
     10 N1         -2.6754   -4.1510    0.0053 N.am      1 <0>        -0.5867
     11 C8         -1.4659   -4.9939   -0.0043 C.3       1 <0>         0.0927
     12 C9         -1.9192   -6.3449    0.6032 C.3       1 <0>        -0.1345
     13 C10        -3.3521   -6.4817    0.0242 C.3       1 <0>        -0.1189
     14 C11        -3.8584   -5.0241    0.0119 C.3       1 <0>         0.1443
     15 C12        -4.6819   -4.7808   -1.2265 C.2       1 <0>         0.4538
     16 O3         -4.3235   -3.9614   -2.0390 O.2       1 <0>        -0.4872
     17 O4         -5.8135   -5.4743   -1.4270 O.3       1 <0>        -0.3480
     18 C13        -6.5440   -5.1923   -2.6223 C.3       1 <0>         0.0666
     19 C14        -7.7939   -6.0732   -2.6760 C.3       1 <0>        -0.1088
     20 C15        -8.5761   -5.7713   -3.9558 C.3       1 <0>        -0.0665
     21 C16        -9.8071   -6.6389   -4.0086 C.ar      1 <0>         0.1300
     22 C17       -11.0493   -6.0534   -4.1655 C.ar      1 <0>        -0.1696
     23 C18       -12.1754   -6.8605   -4.2129 C.ar      1 <0>        -0.0723
     24 C19       -12.0092   -8.2326   -4.1002 C.ar      1 <0>        -0.1777
     25 C20       -10.7357   -8.7462   -3.9454 C.ar      1 <0>         0.1035
     26 N2         -9.6863   -7.9482   -3.9100 N.ar      1 <0>        -0.4815
     27 H1          1.0039    1.9031    0.0027 H         1 <0>         0.0582
     28 H2         -0.5459    1.8868   -0.8726 H         1 <0>         0.0601
     29 H3         -0.5289    1.8773    0.9072 H         1 <0>         0.0600
     30 H4          0.5123   -0.3556   -0.8948 H         1 <0>         0.0688
     31 H5          0.5293   -0.3651    0.8851 H         1 <0>         0.0689
     32 H6         -2.1642    1.0497    1.2777 H         1 <0>         0.0757
     33 H7         -3.1720   -0.4175    1.2794 H         1 <0>         0.0777
     34 H8         -1.6223   -0.4013    2.1547 H         1 <0>         0.0564
     35 H9         -1.6631   -0.3783   -2.1234 H         1 <0>         0.0561
     36 H10        -3.1959   -0.4041   -1.2189 H         1 <0>         0.0787
     37 H11        -2.1881    1.0631   -1.2207 H         1 <0>         0.0749
     38 H12        -1.1113   -5.1369   -1.0251 H         1 <0>         0.0766
     39 H13        -0.6855   -4.5445    0.6098 H         1 <0>         0.1032
     40 H14        -1.2807   -7.1601    0.2629 H         1 <0>         0.0958
     41 H15        -1.9407   -6.2960    1.6919 H         1 <0>         0.0852
     42 H16        -3.3225   -6.8921   -0.9852 H         1 <0>         0.0856
     43 H17        -3.9734   -7.0979    0.6740 H         1 <0>         0.1032
     44 H18        -4.4572   -4.8302    0.9018 H         1 <0>         0.1206
     45 H19        -6.8386   -4.1429   -2.6291 H         1 <0>         0.0689
     46 H20        -5.9163   -5.3991   -3.4891 H         1 <0>         0.0690
     47 H21        -7.4993   -7.1226   -2.6692 H         1 <0>         0.0871
     48 H22        -8.4216   -5.8665   -1.8092 H         1 <0>         0.0735
     49 H23        -8.8706   -4.7219   -3.9625 H         1 <0>         0.0835
     50 H24        -7.9484   -5.9780   -4.8226 H         1 <0>         0.0874
     51 H25       -11.1415   -4.9806   -4.2498 H         1 <0>         0.1353
     52 H26       -13.1588   -6.4309   -4.3344 H         1 <0>         0.1354
     53 H27       -12.8643   -8.8915   -4.1325 H         1 <0>         0.1357
     54 H28       -10.5978   -9.8137   -3.8569 H         1 <0>         0.1572
@<TRIPOS>BOND
     1    1    2 1
     2    1   27 1
     3    1   28 1
     4    1   29 1
     5    2    3 1
     6    2   30 1
     7    2   31 1
     8    3    4 1
     9    3    5 1
    10    3    6 1
    11    4   32 1
    12    4   33 1
    13    4   34 1
    14    5   35 1
    15    5   36 1
    16    5   37 1
    17    6    7 2
    18    6    8 1
    19    8    9 2
    20    8   10 am
    21   10   14 1
    22   10   11 1
    23   11   12 1
    24   11   38 1
    25   11   39 1
    26   12   13 1
    27   12   40 1
    28   12   41 1
    29   13   14 1
    30   13   42 1
    31   13   43 1
    32   14   15 1
    33   14   44 1
    34   15   16 2
    35   15   17 1
    36   17   18 1
    37   18   19 1
    38   18   45 1
    39   18   46 1
    40   19   20 1
    41   19   47 1
    42   19   48 1
    43   20   21 1
    44   20   49 1
    45   20   50 1
    46   21   26 ar
    47   21   22 ar
    48   22   23 ar
    49   22   51 1
    50   23   24 ar
    51   23   52 1
    52   24   25 ar
    53   24   53 1
    54   25   26 ar
    55   25   54 1
@<TRIPOS>MOLECULE
CHEMBL435686__1
   54    55     0     0     0
SMALL
USER_CHARGES

@<TRIPOS>ATOM
      1 C1         -0.0187    1.5258    0.0104 C.3       1 <0>        -0.1556
      2 C2          0.0021   -0.0041    0.0020 C.3       1 <0>        -0.1076
      3 C3         -1.4333   -0.5336    0.0129 C.3       1 <0>        -0.0877
      4 C4         -2.1494   -0.0402    1.2717 C.3       1 <0>        -0.1459
      5 C5         -2.1733   -0.0268   -1.2266 C.3       1 <0>        -0.1464
      6 C6         -1.4129   -2.0405    0.0046 C.2       1 <0>         0.3687
      7 O1         -0.3588   -2.6301   -0.0086 O.2       1 <0>        -0.4131
      8 C7         -2.6937   -2.8034    0.0127 C.2       1 <0>         0.4991
      9 O2         -3.7529   -2.2110    0.0260 O.2       1 <0>        -0.4885
     10 N1         -2.6754   -4.1510    0.0053 N.am      1 <0>        -0.5867
     11 C8         -1.4659   -4.9939   -0.0043 C.3       1 <0>         0.0923
     12 C9         -1.9247   -6.3388   -0.6210 C.3       1 <0>        -0.1342
     13 C10        -3.3523   -6.4815   -0.0303 C.3       1 <0>        -0.1186
     14 C11        -3.8584   -5.0241    0.0119 C.3       1 <0>         0.1438
     15 C12        -4.6590   -4.7929    1.2676 C.2       1 <0>         0.4541
     16 O3         -4.2857   -3.9814    2.0812 O.2       1 <0>        -0.4872
     17 O4         -5.7868   -5.4884    1.4820 O.3       1 <0>        -0.3480
     18 C13        -6.4953   -5.2181    2.6932 C.3       1 <0>         0.0666
     19 C14        -7.7440   -6.0996    2.7612 C.3       1 <0>        -0.1088
     20 C15        -8.5026   -5.8102    4.0580 C.3       1 <0>        -0.0666
     21 C16        -9.7325   -6.6784    4.1250 C.ar      1 <0>         0.1301
     22 C17        -9.9379   -7.4884    5.2261 C.ar      1 <0>        -0.1699
     23 C18       -11.0725   -8.2832    5.2779 C.ar      1 <0>        -0.0724
     24 C19       -11.9622   -8.2335    4.2153 C.ar      1 <0>        -0.1777
     25 C20       -11.6902   -7.3993    3.1478 C.ar      1 <0>         0.1037
     26 N2        -10.6030   -6.6527    3.1350 N.ar      1 <0>        -0.4811
     27 H1          1.0039    1.9031    0.0027 H         1 <0>         0.0582
     28 H2         -0.5459    1.8868   -0.8726 H         1 <0>         0.0601
     29 H3         -0.5289    1.8773    0.9072 H         1 <0>         0.0601
     30 H4          0.5123   -0.3556   -0.8948 H         1 <0>         0.0689
     31 H5          0.5293   -0.3651    0.8851 H         1 <0>         0.0687
     32 H6         -2.1642    1.0497    1.2777 H         1 <0>         0.0749
     33 H7         -3.1720   -0.4175    1.2794 H         1 <0>         0.0788
     34 H8         -1.6223   -0.4013    2.1547 H         1 <0>         0.0560
     35 H9         -1.6631   -0.3783   -2.1234 H         1 <0>         0.0564
     36 H10        -3.1959   -0.4041   -1.2189 H         1 <0>         0.0778
     37 H11        -2.1881    1.0631   -1.2207 H         1 <0>         0.0758
     38 H12        -0.6911   -4.5385   -0.6210 H         1 <0>         0.1039
     39 H13        -1.1021   -5.1469    1.0117 H         1 <0>         0.0761
     40 H14        -1.9562   -6.2793   -1.7089 H         1 <0>         0.0854
     41 H15        -1.2832   -7.1574   -0.2945 H         1 <0>         0.0956
     42 H16        -3.9796   -7.0913   -0.6806 H         1 <0>         0.1034
     43 H17        -3.3136   -6.9017    0.9747 H         1 <0>         0.0843
     44 H18        -4.4734   -4.8216   -0.8649 H         1 <0>         0.1208
     45 H19        -5.8518   -5.4332    3.5463 H         1 <0>         0.0674
     46 H20        -6.7896   -4.1689    2.7156 H         1 <0>         0.0705
     47 H21        -8.3875   -5.8845    1.9081 H         1 <0>         0.0875
     48 H22        -7.4497   -7.1489    2.7389 H         1 <0>         0.0731
     49 H23        -7.8591   -6.0253    4.9111 H         1 <0>         0.0831
     50 H24        -8.7969   -4.7609    4.0803 H         1 <0>         0.0878
     51 H25        -9.2232   -7.5020    6.0358 H         1 <0>         0.1350
     52 H26       -11.2589   -8.9261    6.1254 H         1 <0>         0.1354
     53 H27       -12.8562   -8.8393    4.2219 H         1 <0>         0.1357
     54 H28       -12.3781   -7.3548    2.3164 H         1 <0>         0.1572
@<TRIPOS>BOND
     1    1    2 1
     2    1   27 1
     3    1   28 1
     4    1   29 1
     5    2    3 1
     6    2   30 1
     7    2   31 1
     8    3    4 1
     9    3    5 1
    10    3    6 1
    11    4   32 1
    12    4   33 1
    13    4   34 1
    14    5   35 1
    15    5   36 1
    16    5   37 1
    17    6    7 2
    18    6    8 1
    19    8    9 2
    20    8   10 am
    21   10   14 1
    22   10   11 1
    23   11   12 1
    24   11   38 1
    25   11   39 1
    26   12   13 1
    27   12   40 1
    28   12   41 1
    29   13   14 1
    30   13   42 1
    31   13   43 1
    32   14   15 1
    33   14   44 1
    34   15   16 2
    35   15   17 1
    36   17   18 1
    37   18   19 1
    38   18   45 1
    39   18   46 1
    40   19   20 1
    41   19   47 1
    42   19   48 1
    43   20   21 1
    44   20   49 1
    45   20   50 1
    46   21   26 ar
    47   21   22 ar
    48   22   23 ar
    49   22   51 1
    50   23   24 ar
    51   23   52 1
    52   24   25 ar
    53   24   53 1
    54   25   26 ar
    55   25   54 1
@<TRIPOS>MOLECULE
CHEMBL423033
   51    52     0     0     0
SMALL
USER_CHARGES

@<TRIPOS>ATOM
      1 C1         -0.0187    1.5258    0.0104 C.3       1 <0>        -0.1366
      2 C2          0.0021   -0.0041    0.0020 C.3       1 <0>        -0.0921
      3 C3          0.7421   -0.5109    1.2415 C.3       1 <0>        -0.1446
      4 C4         -1.4333   -0.5336    0.0129 C.3       1 <0>        -0.1442
      5 C5          0.7074   -0.4901   -1.2379 C.2       1 <0>         0.3683
      6 O1          1.1482    0.3052   -2.0329 O.2       1 <0>        -0.4124
      7 C6          0.8613   -1.9526   -1.4831 C.2       1 <0>         0.4993
      8 O2          0.4184   -2.7517   -0.6843 O.2       1 <0>        -0.4891
      9 N1          1.4921   -2.3872   -2.5920 N.am      1 <0>        -0.5870
     10 C7          2.0809   -1.5303   -3.6372 C.3       1 <0>         0.0927
     11 C8          3.1681   -2.4091   -4.3045 C.3       1 <0>        -0.1346
     12 C9          2.4932   -3.8061   -4.2875 C.3       1 <0>        -0.1188
     13 C10         1.7126   -3.7944   -2.9564 C.3       1 <0>         0.1442
     14 C11         0.3884   -4.4910   -3.1358 C.2       1 <0>         0.4541
     15 O3         -0.6419   -3.8802   -2.9769 O.2       1 <0>        -0.4863
     16 O4          0.3535   -5.7900   -3.4720 O.3       1 <0>        -0.3491
     17 C12        -0.9362   -6.3860   -3.6253 C.3       1 <0>         0.0660
     18 C13        -0.7753   -7.8589   -4.0067 C.3       1 <0>        -0.1128
     19 C14        -2.1561   -8.4971   -4.1709 C.3       1 <0>        -0.0738
     20 C15        -1.9976   -9.9479   -4.5466 C.ar      1 <0>        -0.1350
     21 C16        -1.9188  -10.3235   -5.8791 C.ar      1 <0>        -0.0722
     22 C17        -1.7733  -11.6694   -6.1777 C.ar      1 <0>        -0.1698
     23 C18        -1.7120  -12.5857   -5.1446 C.ar      1 <0>         0.0950
     24 N2         -1.7906  -12.1923   -3.8886 N.ar      1 <0>        -0.4829
     25 C19        -1.9231  -10.9200   -3.5674 C.ar      1 <0>         0.1030
     26 H1          1.0039    1.9031    0.0027 H         1 <0>         0.0624
     27 H2         -0.5459    1.8868   -0.8726 H         1 <0>         0.0623
     28 H3         -0.5289    1.8773    0.9072 H         1 <0>         0.0697
     29 H4          0.2319   -0.1594    2.1383 H         1 <0>         0.0730
     30 H5          0.7568   -1.6008    1.2356 H         1 <0>         0.0781
     31 H6          1.7647   -0.1336    1.2338 H         1 <0>         0.0568
     32 H7         -1.9605   -0.1726   -0.8702 H         1 <0>         0.0565
     33 H8         -1.4185   -1.6235    0.0069 H         1 <0>         0.0790
     34 H9         -1.9435   -0.1821    0.9097 H         1 <0>         0.0722
     35 H10         1.3224   -1.2462   -4.3666 H         1 <0>         0.0766
     36 H11         2.5310   -0.6433   -3.1915 H         1 <0>         0.1035
     37 H12         3.3627   -2.0816   -5.3258 H         1 <0>         0.0958
     38 H13         4.0850   -2.4110   -3.7152 H         1 <0>         0.0856
     39 H14         1.8165   -3.9178   -5.1347 H         1 <0>         0.0849
     40 H15         3.2434   -4.5969   -4.2851 H         1 <0>         0.1031
     41 H16         2.2933   -4.2919   -2.1796 H         1 <0>         0.1210
     42 H17        -1.4848   -6.3117   -2.6864 H         1 <0>         0.0709
     43 H18        -1.4860   -5.8656   -4.4095 H         1 <0>         0.0686
     44 H19        -0.2267   -7.9333   -4.9457 H         1 <0>         0.0767
     45 H20        -0.2254   -8.3793   -3.2225 H         1 <0>         0.0786
     46 H21        -2.7047   -8.4227   -3.2319 H         1 <0>         0.0819
     47 H22        -2.7059   -7.9767   -4.9551 H         1 <0>         0.0795
     48 H23        -1.9700   -9.5851   -6.6656 H         1 <0>         0.1342
     49 H24        -1.7091  -11.9979   -7.2045 H         1 <0>         0.1363
     50 H25        -1.5987  -13.6361   -5.3688 H         1 <0>         0.1564
     51 H26        -1.9788  -10.6352   -2.5271 H         1 <0>         0.1550
@<TRIPOS>BOND
     1    1    2 1
     2    1   26 1
     3    1   27 1
     4    1   28 1
     5    2    3 1
     6    2    4 1
     7    2    5 1
     8    3   29 1
     9    3   30 1
    10    3   31 1
    11    4   32 1
    12    4   33 1
    13    4   34 1
    14    5    6 2
    15    5    7 1
    16    7    8 2
    17    7    9 am
    18    9   13 1
    19    9   10 1
    20   10   11 1
    21   10   35 1
    22   10   36 1
    23   11   12 1
    24   11   37 1
    25   11   38 1
    26   12   13 1
    27   12   39 1
    28   12   40 1
    29   13   14 1
    30   13   41 1
    31   14   15 2
    32   14   16 1
    33   16   17 1
    34   17   18 1
    35   17   42 1
    36   17   43 1
    37   18   19 1
    38   18   44 1
    39   18   45 1
    40   19   20 1
    41   19   46 1
    42   19   47 1
    43   20   25 ar
    44   20   21 ar
    45   21   22 ar
    46   21   48 1
    47   22   23 ar
    48   22   49 1
    49   23   24 ar
    50   23   50 1
    51   24   25 ar
    52   25   51 1
@<TRIPOS>MOLECULE
CHEMBL423033__1
   51    52     0     0     0
SMALL
USER_CHARGES

@<TRIPOS>ATOM
      1 C1         -0.0187    1.5258    0.0104 C.3       1 <0>        -0.1367
      2 C2          0.0021   -0.0041    0.0020 C.3       1 <0>        -0.0921
      3 C3          0.7421   -0.5109    1.2415 C.3       1 <0>        -0.1442
      4 C4         -1.4333   -0.5336    0.0129 C.3       1 <0>        -0.1445
      5 C5          0.7074   -0.4901   -1.2379 C.2       1 <0>         0.3683
      6 O1          1.1482    0.3052   -2.0329 O.2       1 <0>        -0.4122
      7 C6          0.8613   -1.9526   -1.4831 C.2       1 <0>         0.4994
      8 O2          0.4184   -2.7517   -0.6843 O.2       1 <0>        -0.4895
      9 N1          1.4921   -2.3872   -2.5920 N.am      1 <0>        -0.5867
     10 C7          2.0809   -1.5303   -3.6372 C.3       1 <0>         0.0921
     11 C8          2.1034   -2.4147   -4.9089 C.3       1 <0>        -0.1343
     12 C9          2.4458   -3.8064   -4.3144 C.3       1 <0>        -0.1187
     13 C10         1.7126   -3.7944   -2.9564 C.3       1 <0>         0.1439
     14 C11         2.5593   -4.4687   -1.9079 C.2       1 <0>         0.4542
     15 O3          2.9444   -3.8434   -0.9484 O.2       1 <0>        -0.4863
     16 O4          2.8856   -5.7640   -2.0398 O.3       1 <0>        -0.3491
     17 C12         3.6906   -6.3386   -1.0083 C.3       1 <0>         0.0660
     18 C13         3.9574   -7.8104   -1.3299 C.3       1 <0>        -0.1127
     19 C14         4.8193   -8.4256   -0.2255 C.3       1 <0>        -0.0738
     20 C15         5.0821   -9.8753   -0.5422 C.ar      1 <0>        -0.1350
     21 C16         4.2136  -10.8600   -0.0961 C.ar      1 <0>        -0.0720
     22 C17         4.4953  -12.1803   -0.4112 C.ar      1 <0>        -0.1695
     23 C18         5.6244  -12.4693   -1.1543 C.ar      1 <0>         0.0949
     24 N2          6.4285  -11.5068   -1.5614 N.ar      1 <0>        -0.4831
     25 C19         6.1885  -10.2396   -1.2855 C.ar      1 <0>         0.1026
     26 H1          1.0039    1.9031    0.0027 H         1 <0>         0.0624
     27 H2         -0.5459    1.8868   -0.8726 H         1 <0>         0.0625
     28 H3         -0.5289    1.8773    0.9072 H         1 <0>         0.0697
     29 H4          0.2319   -0.1594    2.1383 H         1 <0>         0.0722
     30 H5          0.7568   -1.6008    1.2356 H         1 <0>         0.0790
     31 H6          1.7647   -0.1336    1.2338 H         1 <0>         0.0566
     32 H7         -1.9605   -0.1726   -0.8702 H         1 <0>         0.0568
     33 H8         -1.4185   -1.6235    0.0069 H         1 <0>         0.0780
     34 H9         -1.9435   -0.1821    0.9097 H         1 <0>         0.0730
     35 H10         1.4605   -0.6488   -3.7991 H         1 <0>         0.1041
     36 H11         3.0937   -1.2369   -3.3612 H         1 <0>         0.0765
     37 H12         1.1273   -2.4264   -5.3939 H         1 <0>         0.0855
     38 H13         2.8779   -2.0842   -5.6010 H         1 <0>         0.0960
     39 H14         2.0653   -4.6030   -4.9537 H         1 <0>         0.1034
     40 H15         3.5210   -3.9089   -4.1672 H         1 <0>         0.0846
     41 H16         0.7555   -4.3076   -3.0494 H         1 <0>         0.1206
     42 H17         4.6378   -5.8029   -0.9458 H         1 <0>         0.0694
     43 H18         3.1674   -6.2640   -0.0550 H         1 <0>         0.0701
     44 H19         3.0102   -8.3462   -1.3924 H         1 <0>         0.0771
     45 H20         4.4807   -7.8850   -2.2831 H         1 <0>         0.0782
     46 H21         5.7665   -7.8899   -0.1630 H         1 <0>         0.0814
     47 H22         4.2961   -8.3510    0.7278 H         1 <0>         0.0800
     48 H23         3.3387  -10.6045    0.4833 H         1 <0>         0.1346
     49 H24         3.8409  -12.9731   -0.0801 H         1 <0>         0.1364
     50 H25         5.8509  -13.4954   -1.4039 H         1 <0>         0.1564
     51 H26         6.8672   -9.4783   -1.6407 H         1 <0>         0.1546
@<TRIPOS>BOND
     1    1    2 1
     2    1   26 1
     3    1   27 1
     4    1   28 1
     5    2    3 1
     6    2    4 1
     7    2    5 1
     8    3   29 1
     9    3   30 1
    10    3   31 1
    11    4   32 1
    12    4   33 1
    13    4   34 1
    14    5    6 2
    15    5    7 1
    16    7    8 2
    17    7    9 am
    18    9   13 1
    19    9   10 1
    20   10   11 1
    21   10   35 1
    22   10   36 1
    23   11   12 1
    24   11   37 1
    25   11   38 1
    26   12   13 1
    27   12   39 1
    28   12   40 1
    29   13   14 1
    30   13   41 1
    31   14   15 2
    32   14   16 1
    33   16   17 1
    34   17   18 1
    35   17   42 1
    36   17   43 1
    37   18   19 1
    38   18   44 1
    39   18   45 1
    40   19   20 1
    41   19   46 1
    42   19   47 1
    43   20   25 ar
    44   20   21 ar
    45   21   22 ar
    46   21   48 1
    47   22   23 ar
    48   22   49 1
    49   23   24 ar
    50   23   50 1
    51   24   25 ar
    52   25   51 1
@<TRIPOS>MOLECULE
CHEMBL346171
   71    74     0     0     0
SMALL
USER_CHARGES

@<TRIPOS>ATOM
      1 C1          0.0298    0.7169   -0.4742 C.ar      1 <0>        -0.1256
      2 C2          1.1901    1.4683   -0.4633 C.ar      1 <0>        -0.1176
      3 C3          2.4192    0.8407   -0.3839 C.ar      1 <0>        -0.1180
      4 C4          2.4880   -0.5382   -0.3151 C.ar      1 <0>        -0.0814
      5 C5          1.3277   -1.2895   -0.3251 C.ar      1 <0>        -0.1184
      6 C6          0.0987   -0.6621   -0.4059 C.ar      1 <0>        -0.1179
      7 C7          3.8280   -1.2224   -0.2296 C.3       1 <0>        -0.0804
      8 C8          4.2249   -1.3849    1.2391 C.3       1 <0>        -0.1129
      9 C9          5.5854   -2.0795    1.3259 C.3       1 <0>        -0.1317
     10 C10         5.9823   -2.2420    2.7945 C.3       1 <0>         0.0929
     11 C11         7.3954   -2.8224    2.8797 C.3       1 <0>        -0.0851
     12 C12         7.8404   -2.8518    4.3192 C.ar      1 <0>        -0.0740
     13 C13         8.4612   -1.7480    4.8734 C.ar      1 <0>        -0.1033
     14 C14         8.8694   -1.7750    6.1938 C.ar      1 <0>        -0.1131
     15 C15         8.6564   -2.9056    6.9602 C.ar      1 <0>        -0.1168
     16 C16         8.0347   -4.0090    6.4063 C.ar      1 <0>        -0.1129
     17 C17         7.6226   -3.9805    5.0871 C.ar      1 <0>        -0.0906
     18 O1          5.0644   -3.1262    3.4409 O.3       1 <0>        -0.3270
     19 C18         4.3040   -2.6075    4.4179 C.2       1 <0>         0.4740
     20 O2          4.4817   -1.4691    4.7818 O.2       1 <0>        -0.4898
     21 C19         3.2287   -3.4449    5.0608 C.3       1 <0>         0.1665
     22 C20         1.8649   -3.0694    4.4727 C.3       1 <0>        -0.1250
     23 C21         0.7647   -3.8212    5.2254 C.3       1 <0>        -0.1148
     24 C22         0.7834   -3.4135    6.7004 C.3       1 <0>        -0.1410
     25 C23         2.1349   -3.7928    7.3138 C.3       1 <0>         0.1209
     26 N1          3.2057   -3.1909    6.5078 N.pl3     1 <0>        -0.9929
     27 S1          4.3648   -2.2442    7.2167 S.o2      1 <0>         2.6054
     28 O3          4.5023   -2.7634    8.5323 O.2       1 <0>        -0.9579
     29 O4          5.4585   -2.2698    6.3098 O.2       1 <0>        -0.9125
     30 C24         3.6390   -0.5827    7.2734 C.3       1 <0>        -0.5739
     31 C25         4.6182    0.3719    7.9067 C.ar      1 <0>        -0.0867
     32 C26         4.6075    0.5661    9.2753 C.ar      1 <0>        -0.1100
     33 C27         5.5057    1.4417    9.8562 C.ar      1 <0>        -0.1197
     34 C28         6.4149    2.1227    9.0686 C.ar      1 <0>        -0.1117
     35 C29         6.4263    1.9278    7.7001 C.ar      1 <0>        -0.1195
     36 C30         5.5309    1.0490    7.1197 C.ar      1 <0>        -0.0917
     37 H1         -0.9307    1.2074   -0.5317 H         1 <0>         0.1204
     38 H2          1.1363    2.5456   -0.5170 H         1 <0>         0.1209
     39 H3          3.3257    1.4277   -0.3761 H         1 <0>         0.1201
     40 H4          1.3815   -2.3669   -0.2717 H         1 <0>         0.1202
     41 H5         -0.8078   -1.2491   -0.4141 H         1 <0>         0.1210
     42 H6          3.7656   -2.2038   -0.6998 H         1 <0>         0.0735
     43 H7          4.5770   -0.6201   -0.7439 H         1 <0>         0.0731
     44 H8          4.2874   -0.4035    1.7093 H         1 <0>         0.0652
     45 H9          3.4760   -1.9872    1.7533 H         1 <0>         0.0616
     46 H10         5.5229   -3.0609    0.8556 H         1 <0>         0.0763
     47 H11         6.3343   -1.4773    0.8116 H         1 <0>         0.0833
     48 H12         5.9584   -1.2700    3.2870 H         1 <0>         0.0998
     49 H13         7.3968   -3.8357    2.4782 H         1 <0>         0.0801
     50 H14         8.0788   -2.2012    2.3008 H         1 <0>         0.0878
     51 H15         8.6277   -0.8647    4.2747 H         1 <0>         0.1109
     52 H16         9.3551   -0.9129    6.6266 H         1 <0>         0.1120
     53 H17         8.9759   -2.9269    7.9916 H         1 <0>         0.1113
     54 H18         7.8685   -4.8924    7.0049 H         1 <0>         0.1109
     55 H19         7.1336   -4.8412    4.6554 H         1 <0>         0.1112
     56 H20         3.4296   -4.5006    4.8783 H         1 <0>         0.1101
     57 H21         1.7076   -1.9957    4.5753 H         1 <0>         0.0769
     58 H22         1.8360   -3.3426    3.4178 H         1 <0>         0.0851
     59 H23        -0.2049   -3.5746    4.7927 H         1 <0>         0.0750
     60 H24         0.9366   -4.8944    5.1431 H         1 <0>         0.0715
     61 H25         0.6362   -2.3365    6.7821 H         1 <0>         0.0690
     62 H26        -0.0153   -3.9316    7.2312 H         1 <0>         0.0827
     63 H27         2.1910   -3.4167    8.3353 H         1 <0>         0.0923
     64 H28         2.2441   -4.8774    7.3150 H         1 <0>         0.0802
     65 H29         3.4115   -0.2508    6.2604 H         1 <0>         0.1511
     66 H30         2.7222   -0.6066    7.8625 H         1 <0>         0.1243
     67 H31         3.8971    0.0341    9.8907 H         1 <0>         0.1252
     68 H32         5.4968    1.5940   10.9254 H         1 <0>         0.1272
     69 H33         7.1162    2.8074    9.5223 H         1 <0>         0.1254
     70 H34         7.1364    2.4601    7.0847 H         1 <0>         0.1260
     71 H35         5.5422    0.8939    6.0509 H         1 <0>         0.1326
@<TRIPOS>BOND
     1    1    6 ar
     2    1    2 ar
     3    1   37 1
     4    2    3 ar
     5    2   38 1
     6    3    4 ar
     7    3   39 1
     8    4    5 ar
     9    4    7 1
    10    5    6 ar
    11    5   40 1
    12    6   41 1
    13    7    8 1
    14    7   42 1
    15    7   43 1
    16    8    9 1
    17    8   44 1
    18    8   45 1
    19    9   10 1
    20    9   46 1
    21    9   47 1
    22   10   11 1
    23   10   18 1
    24   10   48 1
    25   11   12 1
    26   11   49 1
    27   11   50 1
    28   12   17 ar
    29   12   13 ar
    30   13   14 ar
    31   13   51 1
    32   14   15 ar
    33   14   52 1
    34   15   16 ar
    35   15   53 1
    36   16   17 ar
    37   16   54 1
    38   17   55 1
    39   18   19 1
    40   19   20 2
    41   19   21 1
    42   21   26 1
    43   21   22 1
    44   21   56 1
    45   22   23 1
    46   22   57 1
    47   22   58 1
    48   23   24 1
    49   23   59 1
    50   23   60 1
    51   24   25 1
    52   24   61 1
    53   24   62 1
    54   25   26 1
    55   25   63 1
    56   25   64 1
    57   26   27 1
    58   27   28 2
    59   27   29 2
    60   27   30 1
    61   30   31 1
    62   30   65 1
    63   30   66 1
    64   31   36 ar
    65   31   32 ar
    66   32   33 ar
    67   32   67 1
    68   33   34 ar
    69   33   68 1
    70   34   35 ar
    71   34   69 1
    72   35   36 ar
    73   35   70 1
    74   36   71 1
@<TRIPOS>MOLECULE
CHEMBL346171__1
   71    74     0     0     0
SMALL
USER_CHARGES

@<TRIPOS>ATOM
      1 C1         -0.2000    1.1863   -0.0787 C.ar      1 <0>        -0.1267
      2 C2          0.9769    1.9101   -0.1202 C.ar      1 <0>        -0.1185
      3 C3          2.1926    1.2524   -0.1376 C.ar      1 <0>        -0.1181
      4 C4          2.2314   -0.1292   -0.1129 C.ar      1 <0>        -0.0788
      5 C5          1.0545   -0.8530   -0.0705 C.ar      1 <0>        -0.1178
      6 C6         -0.1613   -0.1953   -0.0545 C.ar      1 <0>        -0.1185
      7 C7          3.5567   -0.8463   -0.1329 C.3       1 <0>        -0.0813
      8 C8          4.0414   -1.0622    1.3022 C.3       1 <0>        -0.1103
      9 C9          5.3869   -1.7902    1.2820 C.3       1 <0>        -0.1155
     10 C10         5.8716   -2.0061    2.7170 C.3       1 <0>         0.1004
     11 C11         7.2724   -2.6211    2.6951 C.3       1 <0>        -0.1054
     12 C12         7.7995   -2.7203    4.1035 C.ar      1 <0>        -0.0734
     13 C13         8.5146   -1.6708    4.6494 C.ar      1 <0>        -0.1023
     14 C14         8.9980   -1.7618    5.9412 C.ar      1 <0>        -0.1109
     15 C15         8.7661   -2.9022    6.6873 C.ar      1 <0>        -0.1216
     16 C16         8.0503   -3.9514    6.1417 C.ar      1 <0>        -0.1145
     17 C17         7.5631   -3.8586    4.8513 C.ar      1 <0>        -0.1229
     18 O1          4.9747   -2.8881    3.3951 O.3       1 <0>        -0.3245
     19 C18         4.8454   -2.7245    4.7211 C.2       1 <0>         0.4767
     20 O2          5.4729   -1.8611    5.2873 O.2       1 <0>        -0.5012
     21 C19         3.9176   -3.6178    5.5035 C.3       1 <0>         0.1643
     22 C20         4.7333   -4.4950    6.4585 C.3       1 <0>        -0.1254
     23 C21         3.7803   -5.2979    7.3469 C.3       1 <0>        -0.1157
     24 C22         2.9280   -4.3389    8.1810 C.3       1 <0>        -0.1397
     25 C23         2.0918   -3.4599    7.2456 C.3       1 <0>         0.1186
     26 N1          2.9907   -2.7949    6.2925 N.pl3     1 <0>        -0.9908
     27 S1          2.9598   -1.1492    6.1109 S.o2      1 <0>         2.6025
     28 O3          3.3615   -0.9251    4.7664 O.2       1 <0>        -0.9386
     29 O4          1.6675   -0.7596    6.5554 O.2       1 <0>        -0.9521
     30 C24         4.2262   -0.5303    7.2528 C.3       1 <0>        -0.5786
     31 C25         4.2856    0.9732    7.1700 C.ar      1 <0>        -0.0885
     32 C26         5.1300    1.5825    6.2608 C.ar      1 <0>        -0.0953
     33 C27         5.1846    2.9617    6.1848 C.ar      1 <0>        -0.1201
     34 C28         4.3944    3.7316    7.0178 C.ar      1 <0>        -0.1110
     35 C29         3.5494    3.1223    7.9263 C.ar      1 <0>        -0.1193
     36 C30         3.4917    1.7431    7.9993 C.ar      1 <0>        -0.1091
     37 H1         -1.1497    1.7002   -0.0606 H         1 <0>         0.1201
     38 H2          0.9466    2.9895   -0.1395 H         1 <0>         0.1204
     39 H3          3.1121    1.8179   -0.1708 H         1 <0>         0.1197
     40 H4          1.0848   -1.9325   -0.0516 H         1 <0>         0.1200
     41 H5         -1.0808   -0.7609   -0.0217 H         1 <0>         0.1207
     42 H6          3.4403   -1.8113   -0.6261 H         1 <0>         0.0715
     43 H7          4.2864   -0.2461   -0.6764 H         1 <0>         0.0705
     44 H8          4.1578   -0.0972    1.7954 H         1 <0>         0.0669
     45 H9          3.3117   -1.6624    1.8457 H         1 <0>         0.0734
     46 H10         5.2706   -2.7552    0.7887 H         1 <0>         0.0749
     47 H11         6.1166   -1.1900    0.7384 H         1 <0>         0.0832
     48 H12         5.9030   -1.0491    3.2378 H         1 <0>         0.0943
     49 H13         7.2253   -3.6166    2.2538 H         1 <0>         0.0825
     50 H14         7.9362   -1.9918    2.1022 H         1 <0>         0.0902
     51 H15         8.6958   -0.7798    4.0665 H         1 <0>         0.1166
     52 H16         9.5573   -0.9421    6.3675 H         1 <0>         0.1175
     53 H17         9.1445   -2.9736    7.6963 H         1 <0>         0.1167
     54 H18         7.8694   -4.8425    6.7244 H         1 <0>         0.1173
     55 H19         7.0007   -4.6768    4.4263 H         1 <0>         0.1152
     56 H20         3.3526   -4.2485    4.8172 H         1 <0>         0.1088
     57 H21         5.3562   -5.1788    5.8819 H         1 <0>         0.0836
     58 H22         5.3662   -3.8633    7.0817 H         1 <0>         0.0832
     59 H23         3.1309   -5.9109    6.7218 H         1 <0>         0.0707
     60 H24         4.3580   -5.9413    8.0106 H         1 <0>         0.0752
     61 H25         2.2659   -4.9116    8.8305 H         1 <0>         0.0829
     62 H26         3.5779   -3.7086    8.7880 H         1 <0>         0.0696
     63 H27         1.3778   -4.0796    6.7031 H         1 <0>         0.0808
     64 H28         1.5582   -2.7096    7.8291 H         1 <0>         0.0973
     65 H29         3.9746   -0.8285    8.2706 H         1 <0>         0.1290
     66 H30         5.1957   -0.9478    6.9810 H         1 <0>         0.1699
     67 H31         5.7474    0.9810    5.6100 H         1 <0>         0.1327
     68 H32         5.8448    3.4377    5.4749 H         1 <0>         0.1270
     69 H33         4.4376    4.8091    6.9589 H         1 <0>         0.1265
     70 H34         2.9323    3.7238    8.5773 H         1 <0>         0.1282
     71 H35         2.8287    1.2670    8.7066 H         1 <0>         0.1267
@<TRIPOS>BOND
     1    1    6 ar
     2    1    2 ar
     3    1   37 1
     4    2    3 ar
     5    2   38 1
     6    3    4 ar
     7    3   39 1
     8    4    5 ar
     9    4    7 1
    10    5    6 ar
    11    5   40 1
    12    6   41 1
    13    7    8 1
    14    7   42 1
    15    7   43 1
    16    8    9 1
    17    8   44 1
    18    8   45 1
    19    9   10 1
    20    9   46 1
    21    9   47 1
    22   10   11 1
    23   10   18 1
    24   10   48 1
    25   11   12 1
    26   11   49 1
    27   11   50 1
    28   12   17 ar
    29   12   13 ar
    30   13   14 ar
    31   13   51 1
    32   14   15 ar
    33   14   52 1
    34   15   16 ar
    35   15   53 1
    36   16   17 ar
    37   16   54 1
    38   17   55 1
    39   18   19 1
    40   19   20 2
    41   19   21 1
    42   21   26 1
    43   21   22 1
    44   21   56 1
    45   22   23 1
    46   22   57 1
    47   22   58 1
    48   23   24 1
    49   23   59 1
    50   23   60 1
    51   24   25 1
    52   24   61 1
    53   24   62 1
    54   25   26 1
    55   25   63 1
    56   25   64 1
    57   26   27 1
    58   27   28 2
    59   27   29 2
    60   27   30 1
    61   30   31 1
    62   30   65 1
    63   30   66 1
    64   31   36 ar
    65   31   32 ar
    66   32   33 ar
    67   32   67 1
    68   33   34 ar
    69   33   68 1
    70   34   35 ar
    71   34   69 1
    72   35   36 ar
    73   35   70 1
    74   36   71 1
@<TRIPOS>MOLECULE
CHEMBL346171__2
   71    74     0     0     0
SMALL
USER_CHARGES

@<TRIPOS>ATOM
      1 C1          0.0276    0.8560    2.0942 C.ar      1 <0>        -0.1269
      2 C2          1.1896    1.6019    2.1597 C.ar      1 <0>        -0.1186
      3 C3          2.4019    1.0228    1.8340 C.ar      1 <0>        -0.1174
      4 C4          2.4521   -0.3022    1.4433 C.ar      1 <0>        -0.0775
      5 C5          1.2902   -1.0483    1.3787 C.ar      1 <0>        -0.1180
      6 C6          0.0778   -0.4688    1.7030 C.ar      1 <0>        -0.1186
      7 C7          3.7735   -0.9332    1.0873 C.3       1 <0>        -0.0813
      8 C8          4.4008   -1.5453    2.3415 C.3       1 <0>        -0.1095
      9 C9          5.7424   -2.1859    1.9800 C.3       1 <0>        -0.1176
     10 C10         6.3696   -2.7979    3.2342 C.3       1 <0>         0.0968
     11 C11         7.6485   -3.5457    2.8519 C.3       1 <0>        -0.1018
     12 C12         8.2014   -4.2481    4.0651 C.ar      1 <0>        -0.0811
     13 C13         9.1617   -3.6298    4.8439 C.ar      1 <0>        -0.1203
     14 C14         9.6690   -4.2742    5.9567 C.ar      1 <0>        -0.1174
     15 C15         9.2156   -5.5365    6.2910 C.ar      1 <0>        -0.1214
     16 C16         8.2547   -6.1544    5.5128 C.ar      1 <0>        -0.1130
     17 C17         7.7443   -5.5083    4.4023 C.ar      1 <0>        -0.1030
     18 O1          6.6847   -1.7599    4.1643 O.3       1 <0>        -0.3237
     19 C18         6.4834   -2.0250    5.4647 C.2       1 <0>         0.4795
     20 O2          6.0162   -3.0879    5.7992 O.2       1 <0>        -0.5050
     21 C19         6.8401   -0.9970    6.5073 C.3       1 <0>         0.1644
     22 C20         8.0352   -1.4915    7.3282 C.3       1 <0>        -0.1243
     23 C21         8.3045   -0.5105    8.4716 C.3       1 <0>        -0.1155
     24 C22         7.0816   -0.4462    9.3894 C.3       1 <0>        -0.1400
     25 C23         5.8756    0.0600    8.5919 C.3       1 <0>         0.1188
     26 N1          5.6983   -0.7939    7.4095 N.pl3     1 <0>        -0.9915
     27 S1          4.2395   -1.5136    7.0995 S.o2      1 <0>         2.6038
     28 O3          3.2858   -0.7062    7.7761 O.2       1 <0>        -0.9536
     29 O4          4.1974   -1.6538    5.6860 O.2       1 <0>        -0.9359
     30 C24         4.3478   -3.1446    7.8862 C.3       1 <0>        -0.5757
     31 C25         3.1430   -3.9664    7.5065 C.ar      1 <0>        -0.0860
     32 C26         1.9673   -3.8411    8.2227 C.ar      1 <0>        -0.1158
     33 C27         0.8622   -4.5949    7.8744 C.ar      1 <0>        -0.1191
     34 C28         0.9326   -5.4738    6.8097 C.ar      1 <0>        -0.1110
     35 C29         2.1081   -5.5985    6.0930 C.ar      1 <0>        -0.1210
     36 C30         3.2119   -4.8414    6.4386 C.ar      1 <0>        -0.0881
     37 H1         -0.9189    1.3072    2.3529 H         1 <0>         0.1199
     38 H2          1.1503    2.6371    2.4649 H         1 <0>         0.1204
     39 H3          3.3096    1.6057    1.8845 H         1 <0>         0.1196
     40 H4          1.3294   -2.0834    1.0730 H         1 <0>         0.1193
     41 H5         -0.8300   -1.0516    1.6521 H         1 <0>         0.1201
     42 H6          3.6148   -1.7133    0.3427 H         1 <0>         0.0698
     43 H7          4.4412   -0.1735    0.6809 H         1 <0>         0.0708
     44 H8          4.5595   -0.7652    3.0860 H         1 <0>         0.0753
     45 H9          3.7331   -2.3050    2.7478 H         1 <0>         0.0670
     46 H10         5.5836   -2.9659    1.2355 H         1 <0>         0.0821
     47 H11         6.4100   -1.4261    1.5737 H         1 <0>         0.0742
     48 H12         5.6649   -3.4931    3.6906 H         1 <0>         0.0969
     49 H13         7.4227   -4.2798    2.0784 H         1 <0>         0.0909
     50 H14         8.3854   -2.8362    2.4754 H         1 <0>         0.0831
     51 H15         9.5159   -2.6436    4.5827 H         1 <0>         0.1181
     52 H16        10.4197   -3.7914    6.5648 H         1 <0>         0.1190
     53 H17         9.6124   -6.0402    7.1601 H         1 <0>         0.1182
     54 H18         7.9007   -7.1408    5.7738 H         1 <0>         0.1189
     55 H19         6.9909   -5.9895    3.7964 H         1 <0>         0.1180
     56 H20         7.0931   -0.0553    6.0203 H         1 <0>         0.1094
     57 H21         7.8122   -2.4763    7.7386 H         1 <0>         0.0810
     58 H22         8.9152   -1.5544    6.6880 H         1 <0>         0.0843
     59 H23         9.1698   -0.8470    9.0426 H         1 <0>         0.0752
     60 H24         8.5031    0.4797    8.0614 H         1 <0>         0.0709
     61 H25         6.8675   -1.4409    9.7805 H         1 <0>         0.0697
     62 H26         7.2827    0.2348   10.2164 H         1 <0>         0.0830
     63 H27         4.9812    0.0140    9.2133 H         1 <0>         0.0971
     64 H28         6.0515    1.0886    8.2769 H         1 <0>         0.0807
     65 H29         5.2531   -3.6504    7.5506 H         1 <0>         0.1643
     66 H30         4.3790   -3.0243    8.9690 H         1 <0>         0.1284
     67 H31         1.9123   -3.1544    9.0545 H         1 <0>         0.1269
     68 H32        -0.0562   -4.4975    8.4344 H         1 <0>         0.1278
     69 H33         0.0694   -6.0633    6.5381 H         1 <0>         0.1258
     70 H34         2.1632   -6.2853    5.2614 H         1 <0>         0.1262
     71 H35         4.1291   -4.9361    5.8763 H         1 <0>         0.1340
@<TRIPOS>BOND
     1    1    6 ar
     2    1    2 ar
     3    1   37 1
     4    2    3 ar
     5    2   38 1
     6    3    4 ar
     7    3   39 1
     8    4    5 ar
     9    4    7 1
    10    5    6 ar
    11    5   40 1
    12    6   41 1
    13    7    8 1
    14    7   42 1
    15    7   43 1
    16    8    9 1
    17    8   44 1
    18    8   45 1
    19    9   10 1
    20    9   46 1
    21    9   47 1
    22   10   11 1
    23   10   18 1
    24   10   48 1
    25   11   12 1
    26   11   49 1
    27   11   50 1
    28   12   17 ar
    29   12   13 ar
    30   13   14 ar
    31   13   51 1
    32   14   15 ar
    33   14   52 1
    34   15   16 ar
    35   15   53 1
    36   16   17 ar
    37   16   54 1
    38   17   55 1
    39   18   19 1
    40   19   20 2
    41   19   21 1
    42   21   26 1
    43   21   22 1
    44   21   56 1
    45   22   23 1
    46   22   57 1
    47   22   58 1
    48   23   24 1
    49   23   59 1
    50   23   60 1
    51   24   25 1
    52   24   61 1
    53   24   62 1
    54   25   26 1
    55   25   63 1
    56   25   64 1
    57   26   27 1
    58   27   28 2
    59   27   29 2
    60   27   30 1
    61   30   31 1
    62   30   65 1
    63   30   66 1
    64   31   36 ar
    65   31   32 ar
    66   32   33 ar
    67   32   67 1
    68   33   34 ar
    69   33   68 1
    70   34   35 ar
    71   34   69 1
    72   35   36 ar
    73   35   70 1
    74   36   71 1
@<TRIPOS>MOLECULE
CHEMBL346171__3
   71    74     0     0     0
SMALL
USER_CHARGES

@<TRIPOS>ATOM
      1 C1         -2.1031   -1.2982    4.0772 C.ar      1 <0>        -0.1239
      2 C2         -1.4318   -0.1894    3.5967 C.ar      1 <0>        -0.1182
      3 C3         -0.2386   -0.3450    2.9163 C.ar      1 <0>        -0.1187
      4 C4          0.2835   -1.6093    2.7167 C.ar      1 <0>        -0.0813
      5 C5         -0.3874   -2.7180    3.1979 C.ar      1 <0>        -0.1149
      6 C6         -1.5813   -2.5626    3.8771 C.ar      1 <0>        -0.1148
      7 C7          1.5837   -1.7790    1.9740 C.3       1 <0>        -0.0793
      8 C8          2.7474   -1.7340    2.9663 C.3       1 <0>        -0.1177
      9 C9          4.0676   -1.9062    2.2123 C.3       1 <0>        -0.1193
     10 C10         5.2313   -1.8612    3.2046 C.3       1 <0>         0.0838
     11 C11         6.5400   -2.1573    2.4695 C.3       1 <0>        -0.0965
     12 C12         7.6711   -2.2208    3.4633 C.ar      1 <0>        -0.0912
     13 C13         8.4043   -1.0843    3.7496 C.ar      1 <0>        -0.1230
     14 C14         9.4418   -1.1425    4.6612 C.ar      1 <0>        -0.1180
     15 C15         9.7459   -2.3371    5.2869 C.ar      1 <0>        -0.1148
     16 C16         9.0121   -3.4733    5.0014 C.ar      1 <0>        -0.1089
     17 C17         7.9719   -3.4141    4.0929 C.ar      1 <0>        -0.1033
     18 O1          5.3014   -0.5630    3.7978 O.3       1 <0>        -0.3251
     19 C18         5.6334   -0.5039    5.0971 C.2       1 <0>         0.4247
     20 O2          5.7735   -1.5225    5.7318 O.2       1 <0>        -0.4530
     21 C19         5.8313    0.8328    5.7642 C.3       1 <0>         0.1679
     22 C20         5.1788    1.9306    4.9181 C.3       1 <0>        -0.1273
     23 C21         5.2613    3.2629    5.6667 C.3       1 <0>        -0.1191
     24 C22         4.4987    3.1549    6.9892 C.3       1 <0>        -0.1379
     25 C23         5.1435    2.0709    7.8588 C.3       1 <0>         0.1159
     26 N1          5.1996    0.8197    7.0906 N.pl3     1 <0>        -0.9941
     27 S1          4.5628   -0.5787    7.7081 S.o2      1 <0>         2.6032
     28 O3          5.6675   -1.4670    7.8078 O.2       1 <0>        -0.9084
     29 O4          3.8532   -0.1719    8.8701 O.2       1 <0>        -0.9583
     30 C24         3.4039   -1.1627    6.4407 C.3       1 <0>        -0.6046
     31 C25         2.5753   -2.2908    6.9992 C.ar      1 <0>        -0.0801
     32 C26         3.0581   -3.5857    6.9650 C.ar      1 <0>        -0.1074
     33 C27         2.2980   -4.6204    7.4773 C.ar      1 <0>        -0.1174
     34 C28         1.0554   -4.3603    8.0242 C.ar      1 <0>        -0.1103
     35 C29         0.5730   -3.0653    8.0593 C.ar      1 <0>        -0.1158
     36 C30         1.3349   -2.0300    7.5508 C.ar      1 <0>        -0.0972
     37 H1         -3.0331   -1.1763    4.6127 H         1 <0>         0.1199
     38 H2         -1.8397    0.7983    3.7527 H         1 <0>         0.1203
     39 H3          0.2855    0.5212    2.5403 H         1 <0>         0.1193
     40 H4          0.0203   -3.7058    3.0416 H         1 <0>         0.1184
     41 H5         -2.1057   -3.4288    4.2527 H         1 <0>         0.1199
     42 H6          1.5842   -2.7385    1.4568 H         1 <0>         0.0727
     43 H7          1.6947   -0.9744    1.2471 H         1 <0>         0.0737
     44 H8          2.7470   -0.7745    3.4835 H         1 <0>         0.0676
     45 H9          2.6365   -2.5386    3.6931 H         1 <0>         0.0660
     46 H10         4.0680   -2.8657    1.6951 H         1 <0>         0.0884
     47 H11         4.1785   -1.1016    1.4854 H         1 <0>         0.0812
     48 H12         5.0745   -2.6082    3.9826 H         1 <0>         0.0933
     49 H13         6.4576   -3.1127    1.9514 H         1 <0>         0.0928
     50 H14         6.7368   -1.3670    1.7451 H         1 <0>         0.0862
     51 H15         8.1667   -0.1511    3.2607 H         1 <0>         0.1186
     52 H16        10.0150   -0.2548    4.8843 H         1 <0>         0.1199
     53 H17        10.5569   -2.3827    5.9986 H         1 <0>         0.1202
     54 H18         9.2499   -4.4066    5.4900 H         1 <0>         0.1208
     55 H19         7.3962   -4.3010    3.8726 H         1 <0>         0.1182
     56 H20         6.8974    1.0345    5.8691 H         1 <0>         0.1246
     57 H21         5.7023    2.0155    3.9658 H         1 <0>         0.0901
     58 H22         4.1338    1.6785    4.7382 H         1 <0>         0.0767
     59 H23         6.3054    3.5022    5.8681 H         1 <0>         0.0695
     60 H24         4.8196    4.0504    5.0562 H         1 <0>         0.0743
     61 H25         4.5381    4.1110    7.5110 H         1 <0>         0.0819
     62 H26         3.4601    2.8912    6.7898 H         1 <0>         0.0693
     63 H27         6.1530    2.3761    8.1343 H         1 <0>         0.0772
     64 H28         4.5465    1.9210    8.7583 H         1 <0>         0.1055
     65 H29         2.7490   -0.3441    6.1423 H         1 <0>         0.1318
     66 H30         3.9617   -1.5164    5.5736 H         1 <0>         0.1506
     67 H31         4.0289   -3.7889    6.5377 H         1 <0>         0.1303
     68 H32         2.6749   -5.6322    7.4500 H         1 <0>         0.1275
     69 H33         0.4613   -5.1688    8.4239 H         1 <0>         0.1261
     70 H34        -0.3979   -2.8621    8.4863 H         1 <0>         0.1271
     71 H35         0.9596   -1.0177    7.5816 H         1 <0>         0.1243
@<TRIPOS>BOND
     1    1    6 ar
     2    1    2 ar
     3    1   37 1
     4    2    3 ar
     5    2   38 1
     6    3    4 ar
     7    3   39 1
     8    4    5 ar
     9    4    7 1
    10    5    6 ar
    11    5   40 1
    12    6   41 1
    13    7    8 1
    14    7   42 1
    15    7   43 1
    16    8    9 1
    17    8   44 1
    18    8   45 1
    19    9   10 1
    20    9   46 1
    21    9   47 1
    22   10   11 1
    23   10   18 1
    24   10   48 1
    25   11   12 1
    26   11   49 1
    27   11   50 1
    28   12   17 ar
    29   12   13 ar
    30   13   14 ar
    31   13   51 1
    32   14   15 ar
    33   14   52 1
    34   15   16 ar
    35   15   53 1
    36   16   17 ar
    37   16   54 1
    38   17   55 1
    39   18   19 1
    40   19   20 2
    41   19   21 1
    42   21   26 1
    43   21   22 1
    44   21   56 1
    45   22   23 1
    46   22   57 1
    47   22   58 1
    48   23   24 1
    49   23   59 1
    50   23   60 1
    51   24   25 1
    52   24   61 1
    53   24   62 1
    54   25   26 1
    55   25   63 1
    56   25   64 1
    57   26   27 1
    58   27   28 2
    59   27   29 2
    60   27   30 1
    61   30   31 1
    62   30   65 1
    63   30   66 1
    64   31   36 ar
    65   31   32 ar
    66   32   33 ar
    67   32   67 1
    68   33   34 ar
    69   33   68 1
    70   34   35 ar
    71   34   69 1
    72   35   36 ar
    73   35   70 1
    74   36   71 1
@<TRIPOS>MOLECULE
CHEMBL357091
   58    60     0     0     0
SMALL
USER_CHARGES

@<TRIPOS>ATOM
      1 C1         -1.2596  -11.5152    1.5608 C.3       1 <0>        -0.1258
      2 C2         -0.9440  -10.0844    1.2083 C.ar      1 <0>        -0.0260
      3 C3         -0.7731   -9.1473    2.2100 C.ar      1 <0>        -0.1476
      4 C4         -0.4836   -7.8349    1.8866 C.ar      1 <0>        -0.0017
      5 C5         -0.3647   -7.4596    0.5615 C.ar      1 <0>        -0.6831
      6 C6         -0.5348   -8.3969   -0.4402 C.ar      1 <0>        -0.0190
      7 C7         -0.8200   -9.7103   -0.1167 C.ar      1 <0>        -0.1480
      8 S1          0.0030   -5.7865    0.1493 S.o2      1 <0>         2.6852
      9 O1         -0.4772   -5.5787   -1.1719 O.2       1 <0>        -0.9494
     10 O2         -0.4244   -4.9940    1.2486 O.2       1 <0>        -0.9433
     11 N1          1.6520   -5.6502    0.0804 N.pl3     1 <0>        -0.9879
     12 C8          2.3872   -6.0590   -1.1242 C.3       1 <0>         0.1227
     13 C9          3.4823   -7.0512   -0.7205 C.3       1 <0>        -0.1394
     14 C10         4.3573   -6.4243    0.3674 C.3       1 <0>        -0.1152
     15 C11         3.5024   -6.1206    1.5999 C.3       1 <0>        -0.1236
     16 C12         2.4070   -5.1126    1.2204 C.3       1 <0>         0.1642
     17 C13         1.4787   -4.9082    2.3899 C.2       1 <0>         0.4703
     18 O3          0.9821   -5.8620    2.9409 O.2       1 <0>        -0.5055
     19 O4          1.2037   -3.6666    2.8194 O.3       1 <0>        -0.3351
     20 C14         0.3158   -3.5471    3.9327 C.3       1 <0>         0.0715
     21 C15         0.1238   -2.0684    4.2754 C.3       1 <0>        -0.1200
     22 C16        -0.8269   -1.9404    5.4674 C.3       1 <0>        -0.1104
     23 C17        -1.0188   -0.4617    5.8101 C.3       1 <0>        -0.0800
     24 C18        -1.9552   -0.3357    6.9842 C.ar      1 <0>        -0.0825
     25 C19        -3.3174   -0.2309    6.7737 C.ar      1 <0>        -0.1179
     26 C20        -4.1763   -0.1153    7.8506 C.ar      1 <0>        -0.1181
     27 C21        -3.6731   -0.1049    9.1380 C.ar      1 <0>        -0.1255
     28 C22        -2.3110   -0.2105    9.3486 C.ar      1 <0>        -0.1186
     29 C23        -1.4524   -0.3305    8.2718 C.ar      1 <0>        -0.1183
     30 H1         -0.3309  -12.0734    1.6797 H         1 <0>         0.0793
     31 H2         -1.8226  -11.5439    2.4937 H         1 <0>         0.0729
     32 H3         -1.8534  -11.9633    0.7641 H         1 <0>         0.0728
     33 H4         -0.8659   -9.4405    3.2453 H         1 <0>         0.1307
     34 H5         -0.3507   -7.1026    2.6692 H         1 <0>         0.1649
     35 H6         -0.4423   -8.1037   -1.4755 H         1 <0>         0.1360
     36 H7         -0.9492  -10.4433   -0.8992 H         1 <0>         0.1317
     37 H8          1.7028   -6.5358   -1.8259 H         1 <0>         0.0926
     38 H9          2.8405   -5.1841   -1.5901 H         1 <0>         0.0841
     39 H10         3.0240   -7.9632   -0.3381 H         1 <0>         0.0708
     40 H11         4.0963   -7.2887   -1.5893 H         1 <0>         0.0826
     41 H12         5.1523   -7.1188    0.6390 H         1 <0>         0.0749
     42 H13         4.7957   -5.4994   -0.0073 H         1 <0>         0.0711
     43 H14         3.0439   -7.0414    1.9605 H         1 <0>         0.0836
     44 H15         4.1307   -5.6958    2.3828 H         1 <0>         0.0833
     45 H16         2.8619   -4.1621    0.9418 H         1 <0>         0.1132
     46 H17        -0.6476   -3.9891    3.6782 H         1 <0>         0.0795
     47 H18         0.7386   -4.0674    4.7921 H         1 <0>         0.0638
     48 H19         1.0871   -1.6264    4.5299 H         1 <0>         0.0731
     49 H20        -0.2990   -1.5481    3.4160 H         1 <0>         0.0763
     50 H21        -1.7902   -2.3824    5.2129 H         1 <0>         0.0686
     51 H22        -0.4041   -2.4607    6.3268 H         1 <0>         0.0671
     52 H23        -0.0555   -0.0197    6.0646 H         1 <0>         0.0743
     53 H24        -1.4416    0.0586    4.9507 H         1 <0>         0.0749
     54 H25        -3.7106   -0.2390    5.7678 H         1 <0>         0.1214
     55 H26        -5.2405   -0.0327    7.6861 H         1 <0>         0.1215
     56 H27        -4.3441   -0.0138    9.9794 H         1 <0>         0.1207
     57 H28        -1.9178   -0.2021   10.3544 H         1 <0>         0.1213
     58 H29        -0.3885   -0.4168    8.4365 H         1 <0>         0.1209
@<TRIPOS>BOND
     1    1    2 1
     2    1   30 1
     3    1   31 1
     4    1   32 1
     5    2    7 ar
     6    2    3 ar
     7    3    4 ar
     8    3   33 1
     9    4    5 ar
    10    4   34 1
    11    5    6 ar
    12    5    8 1
    13    6    7 ar
    14    6   35 1
    15    7   36 1
    16    8    9 2
    17    8   10 2
    18    8   11 1
    19   11   16 1
    20   11   12 1
    21   12   13 1
    22   12   37 1
    23   12   38 1
    24   13   14 1
    25   13   39 1
    26   13   40 1
    27   14   15 1
    28   14   41 1
    29   14   42 1
    30   15   16 1
    31   15   43 1
    32   15   44 1
    33   16   17 1
    34   16   45 1
    35   17   18 2
    36   17   19 1
    37   19   20 1
    38   20   21 1
    39   20   46 1
    40   20   47 1
    41   21   22 1
    42   21   48 1
    43   21   49 1
    44   22   23 1
    45   22   50 1
    46   22   51 1
    47   23   24 1
    48   23   52 1
    49   23   53 1
    50   24   29 ar
    51   24   25 ar
    52   25   26 ar
    53   25   54 1
    54   26   27 ar
    55   26   55 1
    56   27   28 ar
    57   27   56 1
    58   28   29 ar
    59   28   57 1
    60   29   58 1
@<TRIPOS>MOLECULE
CHEMBL357091__1
   58    60     0     0     0
SMALL
USER_CHARGES

@<TRIPOS>ATOM
      1 C1          2.6272    1.8328    2.0807 C.3       1 <0>        -0.1251
      2 C2          2.1340    0.4991    1.5817 C.ar      1 <0>        -0.0265
      3 C3          2.3448    0.1326    0.2656 C.ar      1 <0>        -0.1494
      4 C4          1.8923   -1.0908   -0.1921 C.ar      1 <0>        -0.0180
      5 C5          1.2295   -1.9479    0.6664 C.ar      1 <0>        -0.6771
      6 C6          1.0196   -1.5817    1.9827 C.ar      1 <0>         0.0225
      7 C7          1.4758   -0.3602    2.4415 C.ar      1 <0>        -0.1492
      8 S1          0.6518   -3.5068    0.0827 S.o2      1 <0>         2.6877
      9 O1         -0.1290   -4.0682    1.1288 O.2       1 <0>        -0.9500
     10 O2          0.1320   -3.2850   -1.2211 O.2       1 <0>        -0.9511
     11 N1          1.9766   -4.4842   -0.0960 N.pl3     1 <0>        -0.9878
     12 C8          2.7098   -4.5261   -1.3685 C.3       1 <0>         0.1197
     13 C9          4.1911   -4.2489   -1.0933 C.3       1 <0>        -0.1399
     14 C10         4.7032   -5.2341   -0.0401 C.3       1 <0>        -0.1145
     15 C11         3.9252   -5.0400    1.2635 C.3       1 <0>        -0.1258
     16 C12         2.4446   -5.3216    1.0169 C.3       1 <0>         0.1676
     17 C13         1.6568   -4.9964    2.2598 C.2       1 <0>         0.4647
     18 O3          1.6650   -3.8726    2.7035 O.2       1 <0>        -0.5015
     19 O4          0.9461   -5.9553    2.8739 O.3       1 <0>        -0.3339
     20 C14         0.2233   -5.5763    4.0470 C.3       1 <0>         0.0692
     21 C15        -0.5202   -6.7925    4.6030 C.3       1 <0>        -0.1198
     22 C16        -1.2941   -6.3868    5.8590 C.3       1 <0>        -0.1105
     23 C17        -2.0375   -7.6029    6.4150 C.3       1 <0>        -0.0799
     24 C18        -2.7998   -7.2033    7.6521 C.ar      1 <0>        -0.0828
     25 C19        -2.1966   -7.2878    8.8930 C.ar      1 <0>        -0.1183
     26 C20        -2.8957   -6.9212   10.0278 C.ar      1 <0>        -0.1185
     27 C21        -4.1980   -6.4698    9.9215 C.ar      1 <0>        -0.1253
     28 C22        -4.8009   -6.3844    8.6805 C.ar      1 <0>        -0.1181
     29 C23        -4.1002   -6.7469    7.5454 C.ar      1 <0>        -0.1178
     30 H1          3.6436    1.7257    2.4596 H         1 <0>         0.0785
     31 H2          2.6186    2.5527    1.2623 H         1 <0>         0.0722
     32 H3          1.9763    2.1847    2.8810 H         1 <0>         0.0723
     33 H4          2.8626    0.8022   -0.4051 H         1 <0>         0.1303
     34 H5          2.0564   -1.3769   -1.2206 H         1 <0>         0.1299
     35 H6          0.5014   -2.2512    2.6534 H         1 <0>         0.1508
     36 H7          1.3150   -0.0757    3.4709 H         1 <0>         0.1294
     37 H8          2.6004   -5.5116   -1.8210 H         1 <0>         0.0838
     38 H9          2.3151   -3.7662   -2.0429 H         1 <0>         0.0966
     39 H10         4.7614   -4.3717   -2.0141 H         1 <0>         0.0832
     40 H11         4.3083   -3.2296   -0.7254 H         1 <0>         0.0708
     41 H12         4.5630   -6.2540   -0.3982 H         1 <0>         0.0714
     42 H13         5.7633   -5.0551    0.1396 H         1 <0>         0.0750
     43 H14         4.3063   -5.7259    2.0201 H         1 <0>         0.0842
     44 H15         4.0449   -4.0133    1.6091 H         1 <0>         0.0822
     45 H16         2.3130   -6.3735    0.7632 H         1 <0>         0.1131
     46 H17         0.9193   -5.2016    4.7975 H         1 <0>         0.0654
     47 H18        -0.4944   -4.7956    3.7952 H         1 <0>         0.0783
     48 H19        -1.2163   -7.1672    3.8526 H         1 <0>         0.0770
     49 H20         0.1975   -7.5732    4.8548 H         1 <0>         0.0738
     50 H21        -0.5980   -6.0121    6.6094 H         1 <0>         0.0671
     51 H22        -2.0118   -5.6060    5.6072 H         1 <0>         0.0688
     52 H23        -2.7336   -7.9776    5.6645 H         1 <0>         0.0750
     53 H24        -1.3198   -8.3836    6.6668 H         1 <0>         0.0744
     54 H25        -1.1792   -7.6405    8.9760 H         1 <0>         0.1208
     55 H26        -2.4247   -6.9879   10.9973 H         1 <0>         0.1213
     56 H27        -4.7445   -6.1840   10.8082 H         1 <0>         0.1208
     57 H28        -5.8184   -6.0320    8.5976 H         1 <0>         0.1216
     58 H29        -4.5700   -6.6767    6.5754 H         1 <0>         0.1215
@<TRIPOS>BOND
     1    1    2 1
     2    1   30 1
     3    1   31 1
     4    1   32 1
     5    2    7 ar
     6    2    3 ar
     7    3    4 ar
     8    3   33 1
     9    4    5 ar
    10    4   34 1
    11    5    6 ar
    12    5    8 1
    13    6    7 ar
    14    6   35 1
    15    7   36 1
    16    8    9 2
    17    8   10 2
    18    8   11 1
    19   11   16 1
    20   11   12 1
    21   12   13 1
    22   12   37 1
    23   12   38 1
    24   13   14 1
    25   13   39 1
    26   13   40 1
    27   14   15 1
    28   14   41 1
    29   14   42 1
    30   15   16 1
    31   15   43 1
    32   15   44 1
    33   16   17 1
    34   16   45 1
    35   17   18 2
    36   17   19 1
    37   19   20 1
    38   20   21 1
    39   20   46 1
    40   20   47 1
    41   21   22 1
    42   21   48 1
    43   21   49 1
    44   22   23 1
    45   22   50 1
    46   22   51 1
    47   23   24 1
    48   23   52 1
    49   23   53 1
    50   24   29 ar
    51   24   25 ar
    52   25   26 ar
    53   25   54 1
    54   26   27 ar
    55   26   55 1
    56   27   28 ar
    57   27   56 1
    58   28   29 ar
    59   28   57 1
    60   29   58 1
@<TRIPOS>MOLECULE
CHEMBL372099
   58    62     0     0     0
SMALL
USER_CHARGES

@<TRIPOS>ATOM
      1 C1         -0.1057    1.8723    0.2402 C.3       1 <0>         0.0262
      2 O1         -0.0372    0.4486    0.1379 O.3       1 <0>        -0.3167
      3 C2          0.6037   -0.2118    1.1379 C.ar      1 <0>         0.1362
      4 C3          1.1510    0.4943    2.1996 C.ar      1 <0>        -0.2013
      5 C4          1.8038   -0.1852    3.2064 C.ar      1 <0>        -0.0624
      6 C5          1.9147   -1.5678    3.1677 C.ar      1 <0>        -0.1407
      7 C6          1.3629   -2.2746    2.1198 C.ar      1 <0>        -0.0252
      8 C7          0.7080   -1.5915    1.1039 C.ar      1 <0>        -0.1541
      9 C8          1.4172   -3.7768    2.0330 C.3       1 <0>        -0.1006
     10 C9          2.5230   -4.3421    2.9230 C.3       1 <0>         0.1051
     11 N1          2.4119   -3.6880    4.2443 N.am      1 <0>        -0.5931
     12 C10         2.6529   -2.2559    4.2839 C.3       1 <0>         0.1896
     13 C11         2.3513   -1.6068    5.6226 C.3       1 <0>         0.1449
     14 C12         3.6364   -1.5405    6.4586 C.3       1 <0>        -0.1320
     15 C13         4.1387   -2.9626    6.7183 C.3       1 <0>        -0.1252
     16 C14         3.0741   -3.7571    7.4771 C.3       1 <0>        -0.1249
     17 C15         1.7882   -3.8100    6.6444 C.3       1 <0>         0.1409
     18 C16         2.0950   -4.4408    5.3073 C.2       1 <0>         0.5243
     19 O2          2.0538   -5.6476    5.1931 O.2       1 <0>        -0.5326
     20 N2          1.3696   -2.4192    6.3631 N.pl3     1 <0>        -1.0011
     21 S1         -0.0960   -1.8184    6.8460 S.o2      1 <0>         2.7806
     22 O3         -0.3842   -0.7177    5.9948 O.2       1 <0>        -0.9615
     23 O4         -0.9695   -2.9320    6.9734 O.2       1 <0>        -0.9665
     24 N3          0.1063   -1.1991    8.3685 N.pl3     1 <0>        -1.0027
     25 C17        -0.0575   -2.0538    9.5522 C.3       1 <0>         0.1188
     26 C18         1.2011   -1.9428   10.4185 C.3       1 <0>        -0.1362
     27 C19         1.4669   -0.4700   10.7386 C.3       1 <0>        -0.1175
     28 C20         1.7057    0.3013    9.4386 C.3       1 <0>        -0.1357
     29 C21         0.4588    0.2142    8.5610 C.3       1 <0>         0.1196
     30 H1          0.9033    2.2838    0.2633 H         1 <0>         0.0566
     31 H2         -0.6420    2.2730   -0.6199 H         1 <0>         0.1015
     32 H3         -0.6307    2.1459    1.1555 H         1 <0>         0.0573
     33 H4          1.0665    1.5703    2.2371 H         1 <0>         0.1320
     34 H5          2.2327    0.3635    4.0319 H         1 <0>         0.1279
     35 H6          0.2801   -2.1409    0.2783 H         1 <0>         0.1320
     36 H7          0.4586   -4.1878    2.3497 H         1 <0>         0.0848
     37 H8          1.6060   -4.0684    0.9999 H         1 <0>         0.0932
     38 H9          2.3959   -5.4192    3.0317 H         1 <0>         0.1075
     39 H10         3.4973   -4.1264    2.4843 H         1 <0>         0.0797
     40 H11         3.7167   -2.1066    4.0993 H         1 <0>         0.0898
     41 H12         1.9525   -0.6050    5.4629 H         1 <0>         0.1202
     42 H13         4.3963   -0.9792    5.9150 H         1 <0>         0.0836
     43 H14         3.4282   -1.0484    7.4087 H         1 <0>         0.0806
     44 H15         4.3473   -3.4526    5.7673 H         1 <0>         0.0682
     45 H16         5.0520   -2.9217    7.3118 H         1 <0>         0.0765
     46 H17         3.4343   -4.7705    7.6545 H         1 <0>         0.0868
     47 H18         2.8695   -3.2716    8.4314 H         1 <0>         0.0846
     48 H19         1.0093   -4.3652    7.1670 H         1 <0>         0.1363
     49 H20        -0.9249   -1.7240   10.1240 H         1 <0>         0.0755
     50 H21        -0.1955   -3.0888    9.2393 H         1 <0>         0.0866
     51 H22         1.0542   -2.4960   11.3462 H         1 <0>         0.0768
     52 H23         2.0523   -2.3570    9.8782 H         1 <0>         0.0685
     53 H24         0.6050   -0.0498   11.2571 H         1 <0>         0.0652
     54 H25         2.3479   -0.3901   11.3754 H         1 <0>         0.0660
     55 H26         1.9180    1.3454    9.6688 H         1 <0>         0.0764
     56 H27         2.5522   -0.1341    8.9075 H         1 <0>         0.0676
     57 H28         0.6613    0.6753    7.5943 H         1 <0>         0.0878
     58 H29        -0.3655    0.7331    9.0501 H         1 <0>         0.0742
@<TRIPOS>BOND
     1    1    2 1
     2    1   30 1
     3    1   31 1
     4    1   32 1
     5    2    3 1
     6    3    8 ar
     7    3    4 ar
     8    4    5 ar
     9    4   33 1
    10    5    6 ar
    11    5   34 1
    12    6   12 1
    13    6    7 ar
    14    7    8 ar
    15    7    9 1
    16    8   35 1
    17    9   10 1
    18    9   36 1
    19    9   37 1
    20   10   11 1
    21   10   38 1
    22   10   39 1
    23   11   18 am
    24   11   12 1
    25   12   13 1
    26   12   40 1
    27   13   20 1
    28   13   14 1
    29   13   41 1
    30   14   15 1
    31   14   42 1
    32   14   43 1
    33   15   16 1
    34   15   44 1
    35   15   45 1
    36   16   17 1
    37   16   46 1
    38   16   47 1
    39   17   18 1
    40   17   20 1
    41   17   48 1
    42   18   19 2
    43   20   21 1
    44   21   22 2
    45   21   23 2
    46   21   24 1
    47   24   29 1
    48   24   25 1
    49   25   26 1
    50   25   49 1
    51   25   50 1
    52   26   27 1
    53   26   51 1
    54   26   52 1
    55   27   28 1
    56   27   53 1
    57   27   54 1
    58   28   29 1
    59   28   55 1
    60   28   56 1
    61   29   57 1
    62   29   58 1
@<TRIPOS>MOLECULE
CHEMBL372099__1
   58    62     0     0     0
SMALL
USER_CHARGES

@<TRIPOS>ATOM
      1 C1         -0.0173    1.4248    0.0099 C.3       1 <0>         0.0260
      2 O1          0.0021   -0.0041    0.0020 O.3       1 <0>        -0.3158
      3 C2          0.6258   -0.6184    1.0415 C.ar      1 <0>         0.1392
      4 C3          1.2017    0.1406    2.0502 C.ar      1 <0>        -0.2122
      5 C4          1.8386   -0.4818    3.1091 C.ar      1 <0>        -0.0722
      6 C5          1.8961   -1.8567    3.1554 C.ar      1 <0>        -0.1363
      7 C6          1.3195   -2.6179    2.1491 C.ar      1 <0>        -0.0322
      8 C7          0.6810   -2.0057    1.0955 C.ar      1 <0>        -0.1416
      9 C8          1.4174   -4.1165    2.2652 C.3       1 <0>        -0.0934
     10 C9          1.0627   -4.5440    3.6856 C.3       1 <0>         0.1196
     11 N1          1.7494   -3.7213    4.6941 N.am      1 <0>        -0.5938
     12 C10         2.5768   -2.5914    4.2816 C.3       1 <0>         0.1887
     13 C11         2.8681   -1.6276    5.4227 C.3       1 <0>         0.1494
     14 C12         1.6651   -0.7333    5.7083 C.3       1 <0>        -0.1669
     15 C13         0.5043   -1.5523    6.2711 C.3       1 <0>        -0.1224
     16 C14         0.9543   -2.2918    7.5357 C.3       1 <0>        -0.1271
     17 C15         2.0916   -3.2541    7.1373 C.3       1 <0>         0.1442
     18 C16         1.5888   -4.0786    5.9803 C.2       1 <0>         0.5186
     19 O2          1.0100   -5.1167    6.2216 O.2       1 <0>        -0.5334
     20 N2          3.1940   -2.4078    6.6303 N.pl3     1 <0>        -1.0047
     21 S1          4.6782   -2.3424    7.3618 S.o2      1 <0>         2.7823
     22 O3          4.8287   -3.5567    8.0844 O.2       1 <0>        -0.9646
     23 O4          5.6038   -1.9287    6.3662 O.2       1 <0>        -0.9663
     24 N3          4.6172   -1.1275    8.4855 N.pl3     1 <0>        -1.0017
     25 C17         4.9773    0.2492    8.1197 C.3       1 <0>         0.1197
     26 C18         3.8259    1.1807    8.5116 C.3       1 <0>        -0.1356
     27 C19         3.5021    0.9887    9.9950 C.3       1 <0>        -0.1175
     28 C20         3.0594   -0.4557   10.2394 C.3       1 <0>        -0.1370
     29 C21         4.1962   -1.4046    9.8656 C.3       1 <0>         0.1190
     30 H1          1.0053    1.8021    0.0021 H         1 <0>         0.0576
     31 H2         -0.5445    1.7859   -0.8732 H         1 <0>         0.1021
     32 H3         -0.5275    1.7763    0.9067 H         1 <0>         0.0569
     33 H4          1.1530    1.2187    2.0086 H         1 <0>         0.1324
     34 H5          2.2884    0.1074    3.8946 H         1 <0>         0.1480
     35 H6          0.2295   -2.5989    0.3141 H         1 <0>         0.1352
     36 H7          0.7252   -4.5809    1.5629 H         1 <0>         0.0972
     37 H8          2.4347   -4.4327    2.0344 H         1 <0>         0.0900
     38 H9         -0.0143   -4.4512    3.8256 H         1 <0>         0.0715
     39 H10         1.3484   -5.5868    3.8241 H         1 <0>         0.0827
     40 H11         3.5284   -2.9767    3.9152 H         1 <0>         0.0882
     41 H12         3.7195   -1.0009    5.1574 H         1 <0>         0.1153
     42 H13         1.9495    0.0307    6.4318 H         1 <0>         0.0757
     43 H14         1.3489   -0.2508    4.7834 H         1 <0>         0.1151
     44 H15        -0.3234   -0.8867    6.5159 H         1 <0>         0.0717
     45 H16         0.1769   -2.2765    5.5252 H         1 <0>         0.0707
     46 H17         1.3175   -1.5757    8.2728 H         1 <0>         0.0857
     47 H18         0.1195   -2.8576    7.9494 H         1 <0>         0.0846
     48 H19         2.4032   -3.8799    7.9736 H         1 <0>         0.1410
     49 H20         5.8824    0.5436    8.6509 H         1 <0>         0.0753
     50 H21         5.1462    0.3094    7.0445 H         1 <0>         0.0872
     51 H22         4.1187    2.2155    8.3341 H         1 <0>         0.0758
     52 H23         2.9462    0.9432    7.9135 H         1 <0>         0.0679
     53 H24         4.3893    1.2024   10.5910 H         1 <0>         0.0653
     54 H25         2.6996    1.6680   10.2823 H         1 <0>         0.0656
     55 H26         2.8065   -0.5856   11.2917 H         1 <0>         0.0771
     56 H27         2.1869   -0.6778    9.6250 H         1 <0>         0.0685
     57 H28         3.8499   -2.4353    9.9419 H         1 <0>         0.0884
     58 H29         5.0362   -1.2481   10.5423 H         1 <0>         0.0753
@<TRIPOS>BOND
     1    1    2 1
     2    1   30 1
     3    1   31 1
     4    1   32 1
     5    2    3 1
     6    3    8 ar
     7    3    4 ar
     8    4    5 ar
     9    4   33 1
    10    5    6 ar
    11    5   34 1
    12    6   12 1
    13    6    7 ar
    14    7    8 ar
    15    7    9 1
    16    8   35 1
    17    9   10 1
    18    9   36 1
    19    9   37 1
    20   10   11 1
    21   10   38 1
    22   10   39 1
    23   11   18 am
    24   11   12 1
    25   12   13 1
    26   12   40 1
    27   13   20 1
    28   13   14 1
    29   13   41 1
    30   14   15 1
    31   14   42 1
    32   14   43 1
    33   15   16 1
    34   15   44 1
    35   15   45 1
    36   16   17 1
    37   16   46 1
    38   16   47 1
    39   17   18 1
    40   17   20 1
    41   17   48 1
    42   18   19 2
    43   20   21 1
    44   21   22 2
    45   21   23 2
    46   21   24 1
    47   24   29 1
    48   24   25 1
    49   25   26 1
    50   25   49 1
    51   25   50 1
    52   26   27 1
    53   26   51 1
    54   26   52 1
    55   27   28 1
    56   27   53 1
    57   27   54 1
    58   28   29 1
    59   28   55 1
    60   28   56 1
    61   29   57 1
    62   29   58 1
@<TRIPOS>MOLECULE
CHEMBL372099__2
   58    62     0     0     0
SMALL
USER_CHARGES

@<TRIPOS>ATOM
      1 C1         -0.0173    1.4248    0.0099 C.3       1 <0>         0.0258
      2 O1          0.0021   -0.0041    0.0020 O.3       1 <0>        -0.3158
      3 C2          0.6258   -0.6184    1.0415 C.ar      1 <0>         0.1402
      4 C3          1.2018    0.1404    2.0503 C.ar      1 <0>        -0.2118
      5 C4          1.8369   -0.4819    3.1104 C.ar      1 <0>        -0.0721
      6 C5          1.8941   -1.8567    3.1571 C.ar      1 <0>        -0.1392
      7 C6          1.3204   -2.6178    2.1490 C.ar      1 <0>        -0.0325
      8 C7          0.6812   -2.0057    1.0957 C.ar      1 <0>        -0.1425
      9 C8          1.4245   -4.1163    2.2618 C.3       1 <0>        -0.0918
     10 C9          2.8526   -4.5029    2.6331 C.3       1 <0>         0.1203
     11 N1          3.3725   -3.6841    3.7399 N.am      1 <0>        -0.5912
     12 C10         2.5712   -2.5921    4.2851 C.3       1 <0>         0.1880
     13 C11         3.3931   -1.6172    5.1156 C.3       1 <0>         0.1467
     14 C12         4.1974   -0.6757    4.2239 C.3       1 <0>        -0.1652
     15 C13         5.2828   -1.4414    3.4686 C.3       1 <0>        -0.1241
     16 C14         6.1923   -2.1720    4.4623 C.3       1 <0>        -0.1238
     17 C15         5.3232   -3.1818    5.2390 C.3       1 <0>         0.1455
     18 C16         4.5867   -4.0096    4.2173 C.2       1 <0>         0.5170
     19 O2          5.1158   -5.0200    3.8050 O.2       1 <0>        -0.5341
     20 N2          4.3149   -2.3853    5.9722 N.pl3     1 <0>        -1.0043
     21 S1          4.2289   -2.3581    7.6257 S.o2      1 <0>         2.7824
     22 O3          5.5202   -2.7068    8.1054 O.2       1 <0>        -0.9642
     23 O4          3.5883   -1.1399    7.9791 O.2       1 <0>        -0.9659
     24 N3          3.2084   -3.5794    8.0830 N.pl3     1 <0>        -1.0034
     25 C17         1.7656   -3.3377    8.2198 C.3       1 <0>         0.1196
     26 C18         1.0107   -4.3682    7.3742 C.3       1 <0>        -0.1356
     27 C19         1.4531   -5.7764    7.7783 C.3       1 <0>        -0.1160
     28 C20         2.9516   -5.9381    7.5126 C.3       1 <0>        -0.1346
     29 C21         3.7277   -4.9269    8.3539 C.3       1 <0>         0.1201
     30 H1          1.0053    1.8021    0.0021 H         1 <0>         0.0573
     31 H2         -0.5445    1.7859   -0.8732 H         1 <0>         0.1023
     32 H3         -0.5275    1.7763    0.9067 H         1 <0>         0.0579
     33 H4          1.1545    1.2185    2.0079 H         1 <0>         0.1327
     34 H5          2.2855    0.1074    3.8965 H         1 <0>         0.1497
     35 H6          0.2292   -2.5991    0.3147 H         1 <0>         0.1348
     36 H7          0.7404   -4.4707    3.0329 H         1 <0>         0.0883
     37 H8          1.1619   -4.5714    1.3068 H         1 <0>         0.0963
     38 H9          2.8707   -5.5518    2.9288 H         1 <0>         0.0816
     39 H10         3.4940   -4.3702    1.7619 H         1 <0>         0.0707
     40 H11         1.8015   -3.0175    4.9291 H         1 <0>         0.0857
     41 H12         2.7261   -1.0259    5.7429 H         1 <0>         0.1171
     42 H13         3.5277   -0.2013    3.5066 H         1 <0>         0.1153
     43 H14         4.6635    0.0924    4.8411 H         1 <0>         0.0777
     44 H15         4.8168   -2.1677    2.8027 H         1 <0>         0.0701
     45 H16         5.8769   -0.7419    2.8806 H         1 <0>         0.0733
     46 H17         6.9795   -2.6996    3.9237 H         1 <0>         0.0856
     47 H18         6.6339   -1.4553    5.1548 H         1 <0>         0.0860
     48 H19         5.9224   -3.8024    5.9053 H         1 <0>         0.1388
     49 H20         1.4754   -3.4400    9.2655 H         1 <0>         0.0767
     50 H21         1.5285   -2.3332    7.8692 H         1 <0>         0.0871
     51 H22        -0.0611   -4.2614    7.5418 H         1 <0>         0.0768
     52 H23         1.2324   -4.2059    6.3194 H         1 <0>         0.0647
     53 H24         1.2538   -5.9293    8.8390 H         1 <0>         0.0659
     54 H25         0.8995   -6.5123    7.1952 H         1 <0>         0.0652
     55 H26         3.2613   -6.9487    7.7788 H         1 <0>         0.0769
     56 H27         3.1550   -5.7610    6.4565 H         1 <0>         0.0647
     57 H28         4.7848   -4.9706    8.0918 H         1 <0>         0.0874
     58 H29         3.6011   -5.1617    9.4108 H         1 <0>         0.0762
@<TRIPOS>BOND
     1    1    2 1
     2    1   30 1
     3    1   31 1
     4    1   32 1
     5    2    3 1
     6    3    8 ar
     7    3    4 ar
     8    4    5 ar
     9    4   33 1
    10    5    6 ar
    11    5   34 1
    12    6   12 1
    13    6    7 ar
    14    7    8 ar
    15    7    9 1
    16    8   35 1
    17    9   10 1
    18    9   36 1
    19    9   37 1
    20   10   11 1
    21   10   38 1
    22   10   39 1
    23   11   18 am
    24   11   12 1
    25   12   13 1
    26   12   40 1
    27   13   20 1
    28   13   14 1
    29   13   41 1
    30   14   15 1
    31   14   42 1
    32   14   43 1
    33   15   16 1
    34   15   44 1
    35   15   45 1
    36   16   17 1
    37   16   46 1
    38   16   47 1
    39   17   18 1
    40   17   20 1
    41   17   48 1
    42   18   19 2
    43   20   21 1
    44   21   22 2
    45   21   23 2
    46   21   24 1
    47   24   29 1
    48   24   25 1
    49   25   26 1
    50   25   49 1
    51   25   50 1
    52   26   27 1
    53   26   51 1
    54   26   52 1
    55   27   28 1
    56   27   53 1
    57   27   54 1
    58   28   29 1
    59   28   55 1
    60   28   56 1
    61   29   57 1
    62   29   58 1
@<TRIPOS>MOLECULE
CHEMBL372099__3
   58    62     0     0     0
SMALL
USER_CHARGES

@<TRIPOS>ATOM
      1 C1         -0.0173    1.4248    0.0099 C.3       1 <0>         0.0262
      2 O1          0.0021   -0.0041    0.0020 O.3       1 <0>        -0.3167
      3 C2          0.6258   -0.6184    1.0415 C.ar      1 <0>         0.1362
      4 C3          1.2029    0.1372    2.0522 C.ar      1 <0>        -0.2012
      5 C4          1.8288   -0.4962    3.1050 C.ar      1 <0>        -0.0624
      6 C5          1.8893   -1.8815    3.1592 C.ar      1 <0>        -0.1405
      7 C6          1.3252   -2.6365    2.1525 C.ar      1 <0>        -0.0251
      8 C7          0.6829   -2.0002    1.0988 C.ar      1 <0>        -0.1541
      9 C8          1.3808   -4.1412    2.1342 C.3       1 <0>        -0.1006
     10 C9          1.6736   -4.6997    3.5260 C.3       1 <0>         0.1051
     11 N1          2.8053   -3.9313    4.0871 N.am      1 <0>        -0.5932
     12 C10         2.5726   -2.5194    4.3386 C.3       1 <0>         0.1897
     13 C11         3.8139   -1.7418    4.7377 C.3       1 <0>         0.1450
     14 C12         3.9113   -1.6860    6.2681 C.3       1 <0>        -0.1325
     15 C13         4.0426   -3.1098    6.8136 C.3       1 <0>        -0.1252
     16 C14         5.2999   -3.7689    6.2434 C.3       1 <0>        -0.1244
     17 C15         5.2044   -3.8108    4.7141 C.3       1 <0>         0.1409
     18 C16         3.9604   -4.5704    4.3204 C.2       1 <0>         0.5243
     19 O2          4.0067   -5.7777    4.2140 O.2       1 <0>        -0.5325
     20 N2          5.0173   -2.4250    4.2309 N.pl3     1 <0>        -1.0010
     21 S1          6.0835   -1.6942    3.1957 S.o2      1 <0>         2.7805
     22 O3          6.7523   -2.7366    2.4990 O.2       1 <0>        -0.9667
     23 O4          5.3614   -0.6706    2.5248 O.2       1 <0>        -0.9612
     24 N3          7.2262   -0.9364    4.1243 N.pl3     1 <0>        -1.0026
     25 C17         7.0339    0.4528    4.5622 C.3       1 <0>         0.1200
     26 C18         7.1919    0.5162    6.0846 C.3       1 <0>        -0.1358
     27 C19         8.5425   -0.0859    6.4789 C.3       1 <0>        -0.1175
     28 C20         8.5937   -1.5537    6.0487 C.3       1 <0>        -0.1361
     29 C21         8.4488   -1.6425    4.5309 C.3       1 <0>         0.1185
     30 H1          1.0053    1.8021    0.0021 H         1 <0>         0.0573
     31 H2         -0.5445    1.7859   -0.8732 H         1 <0>         0.1014
     32 H3         -0.5275    1.7763    0.9067 H         1 <0>         0.0566
     33 H4          1.1623    1.2158    2.0142 H         1 <0>         0.1319
     34 H5          2.2759    0.0907    3.8937 H         1 <0>         0.1278
     35 H6          0.2283   -2.5880    0.3151 H         1 <0>         0.1320
     36 H7          0.4234   -4.5299    1.7873 H         1 <0>         0.0932
     37 H8          2.1651   -4.4615    1.4484 H         1 <0>         0.0847
     38 H9          0.7964   -4.5844    4.1628 H         1 <0>         0.0798
     39 H10         1.9423   -5.7535    3.4526 H         1 <0>         0.1074
     40 H11         1.8815   -2.4546    5.1790 H         1 <0>         0.0899
     41 H12         3.7634   -0.7338    4.3257 H         1 <0>         0.1196
     42 H13         4.7860   -1.1031    6.5567 H         1 <0>         0.0808
     43 H14         3.0124   -1.2217    6.6738 H         1 <0>         0.0836
     44 H15         4.1122   -3.0763    7.9009 H         1 <0>         0.0765
     45 H16         3.1664   -3.6906    6.5253 H         1 <0>         0.0681
     46 H17         6.1774   -3.1928    6.5372 H         1 <0>         0.0843
     47 H18         5.3854   -4.7843    6.6302 H         1 <0>         0.0868
     48 H19         6.0936   -4.2694    4.2816 H         1 <0>         0.1367
     49 H20         7.7808    1.0913    4.0904 H         1 <0>         0.0747
     50 H21         6.0349    0.7886    4.2842 H         1 <0>         0.0868
     51 H22         7.1471    1.5549    6.4121 H         1 <0>         0.0760
     52 H23         6.3893   -0.0498    6.5576 H         1 <0>         0.0682
     53 H24         9.3435    0.4651    5.9860 H         1 <0>         0.0652
     54 H25         8.6681   -0.0196    7.5596 H         1 <0>         0.0660
     55 H26         9.5467   -1.9882    6.3506 H         1 <0>         0.0771
     56 H27         7.7779   -2.1002    6.5219 H         1 <0>         0.0680
     57 H28         8.3831   -2.6888    4.2323 H         1 <0>         0.0877
     58 H29         9.3136   -1.1787    4.0566 H         1 <0>         0.0749
@<TRIPOS>BOND
     1    1    2 1
     2    1   30 1
     3    1   31 1
     4    1   32 1
     5    2    3 1
     6    3    8 ar
     7    3    4 ar
     8    4    5 ar
     9    4   33 1
    10    5    6 ar
    11    5   34 1
    12    6   12 1
    13    6    7 ar
    14    7    8 ar
    15    7    9 1
    16    8   35 1
    17    9   10 1
    18    9   36 1
    19    9   37 1
    20   10   11 1
    21   10   38 1
    22   10   39 1
    23   11   18 am
    24   11   12 1
    25   12   13 1
    26   12   40 1
    27   13   20 1
    28   13   14 1
    29   13   41 1
    30   14   15 1
    31   14   42 1
    32   14   43 1
    33   15   16 1
    34   15   44 1
    35   15   45 1
    36   16   17 1
    37   16   46 1
    38   16   47 1
    39   17   18 1
    40   17   20 1
    41   17   48 1
    42   18   19 2
    43   20   21 1
    44   21   22 2
    45   21   23 2
    46   21   24 1
    47   24   29 1
    48   24   25 1
    49   25   26 1
    50   25   49 1
    51   25   50 1
    52   26   27 1
    53   26   51 1
    54   26   52 1
    55   27   28 1
    56   27   53 1
    57   27   54 1
    58   28   29 1
    59   28   55 1
    60   28   56 1
    61   29   57 1
    62   29   58 1
@<TRIPOS>MOLECULE
CHEMBL120303
   56    57     0     0     0
SMALL
USER_CHARGES

@<TRIPOS>ATOM
      1 C1         -0.0187    1.5258    0.0104 C.3       1 <0>        -0.1555
      2 C2          0.0021   -0.0041    0.0020 C.3       1 <0>        -0.1078
      3 C3         -1.4333   -0.5336    0.0129 C.3       1 <0>        -0.0878
      4 C4         -2.1494   -0.0402    1.2717 C.3       1 <0>        -0.1455
      5 C5         -2.1733   -0.0268   -1.2266 C.3       1 <0>        -0.1458
      6 C6         -1.4129   -2.0405    0.0046 C.2       1 <0>         0.3665
      7 O1         -0.3588   -2.6301   -0.0086 O.2       1 <0>        -0.4137
      8 C7         -2.6937   -2.8034    0.0127 C.2       1 <0>         0.4965
      9 O2         -3.7529   -2.2110    0.0260 O.2       1 <0>        -0.4994
     10 N1         -2.6754   -4.1510    0.0053 N.am      1 <0>        -0.5854
     11 C8         -1.4659   -4.9939   -0.0043 C.3       1 <0>         0.0944
     12 C9         -1.9192   -6.3449    0.6032 C.3       1 <0>        -0.1372
     13 C10        -3.3521   -6.4817    0.0242 C.3       1 <0>        -0.1194
     14 C11        -3.8584   -5.0241    0.0119 C.3       1 <0>         0.0822
     15 H1         -4.4540   -4.8481   -0.8838 H         1 <0>         0.1082
     16 C12        -4.6863   -4.7560    1.2422 C.2       1 <0>         0.3513
     17 O3         -4.2147   -4.1341    2.1637 O.2       1 <0>        -0.4318
     18 C13        -6.1028   -5.2641    1.3226 C.3       1 <0>        -0.1670
     19 C14        -6.7145   -4.8590    2.6653 C.3       1 <0>        -0.1104
     20 C15        -8.1526   -5.3747    2.7469 C.3       1 <0>        -0.1131
     21 C16        -8.7643   -4.9696    4.0895 C.3       1 <0>        -0.0778
     22 C17       -10.1808   -5.4777    4.1699 C.ar      1 <0>        -0.1329
     23 C18       -11.2334   -4.6975    3.7155 C.ar      1 <0>        -0.0747
     24 C19       -12.5197   -5.2056    3.8094 C.ar      1 <0>        -0.1695
     25 C20       -12.7091   -6.4641    4.3489 C.ar      1 <0>         0.0918
     26 N2        -11.6843   -7.1779    4.7715 N.ar      1 <0>        -0.4834
     27 C21       -10.4467   -6.7291    4.6921 C.ar      1 <0>         0.0995
     28 H2          1.0039    1.9031    0.0027 H         1 <0>         0.0582
     29 H3         -0.5459    1.8868   -0.8726 H         1 <0>         0.0599
     30 H4         -0.5289    1.8773    0.9072 H         1 <0>         0.0601
     31 H5          0.5123   -0.3556   -0.8948 H         1 <0>         0.0686
     32 H6          0.5293   -0.3651    0.8851 H         1 <0>         0.0686
     33 H7         -2.1642    1.0497    1.2777 H         1 <0>         0.0748
     34 H8         -3.1720   -0.4175    1.2794 H         1 <0>         0.0781
     35 H9         -1.6223   -0.4013    2.1547 H         1 <0>         0.0559
     36 H10        -1.6631   -0.3783   -2.1234 H         1 <0>         0.0558
     37 H11        -3.1959   -0.4041   -1.2189 H         1 <0>         0.0777
     38 H12        -2.1881    1.0631   -1.2207 H         1 <0>         0.0755
     39 H13        -1.1113   -5.1369   -1.0251 H         1 <0>         0.0781
     40 H14        -0.6855   -4.5445    0.6098 H         1 <0>         0.0978
     41 H15        -1.2807   -7.1601    0.2629 H         1 <0>         0.0942
     42 H16        -1.9407   -6.2960    1.6919 H         1 <0>         0.0794
     43 H17        -3.3225   -6.8921   -0.9852 H         1 <0>         0.0936
     44 H18        -3.9734   -7.0979    0.6740 H         1 <0>         0.0899
     45 H19        -6.6898   -4.8336    0.5113 H         1 <0>         0.1005
     46 H20        -6.1046   -6.3506    1.2356 H         1 <0>         0.0996
     47 H21        -6.1275   -5.2894    3.4766 H         1 <0>         0.0694
     48 H22        -6.7127   -3.7724    2.7523 H         1 <0>         0.0702
     49 H23        -8.7396   -4.9443    1.9356 H         1 <0>         0.0651
     50 H24        -8.1544   -6.4613    2.6599 H         1 <0>         0.0660
     51 H25        -8.1773   -5.4001    4.9008 H         1 <0>         0.0775
     52 H26        -8.7625   -3.8831    4.1766 H         1 <0>         0.0760
     53 H27       -11.0552   -3.7172    3.2988 H         1 <0>         0.1335
     54 H28       -13.3633   -4.6254    3.4656 H         1 <0>         0.1353
     55 H29       -13.7082   -6.8671    4.4255 H         1 <0>         0.1554
     56 H30        -9.6320   -7.3448    5.0437 H         1 <0>         0.1536
@<TRIPOS>BOND
     1    1    2 1
     2    1   28 1
     3    1   29 1
     4    1   30 1
     5    2    3 1
     6    2   31 1
     7    2   32 1
     8    3    4 1
     9    3    5 1
    10    3    6 1
    11    4   33 1
    12    4   34 1
    13    4   35 1
    14    5   36 1
    15    5   37 1
    16    5   38 1
    17    6    7 2
    18    6    8 1
    19    8    9 2
    20    8   10 am
    21   10   14 1
    22   10   11 1
    23   11   12 1
    24   11   39 1
    25   11   40 1
    26   12   13 1
    27   12   41 1
    28   12   42 1
    29   13   14 1
    30   13   43 1
    31   13   44 1
    32   14   15 1
    33   14   16 1
    34   16   17 2
    35   16   18 1
    36   18   19 1
    37   18   45 1
    38   18   46 1
    39   19   20 1
    40   19   47 1
    41   19   48 1
    42   20   21 1
    43   20   49 1
    44   20   50 1
    45   21   22 1
    46   21   51 1
    47   21   52 1
    48   22   27 ar
    49   22   23 ar
    50   23   24 ar
    51   23   53 1
    52   24   25 ar
    53   24   54 1
    54   25   26 ar
    55   25   55 1
    56   26   27 ar
    57   27   56 1
@<TRIPOS>MOLECULE
CHEMBL107698
   64    65     0     0     0
SMALL
USER_CHARGES

@<TRIPOS>ATOM
      1 C1          0.1347    1.5294    0.0922 C.3       1 <0>        -0.1558
      2 C2          0.1235   -0.0004    0.0683 C.3       1 <0>        -0.1085
      3 C3          0.8038   -0.4956   -1.2095 C.3       1 <0>        -0.0871
      4 C4          0.0498    0.0390   -2.4287 C.3       1 <0>        -0.1470
      5 C5          2.2494    0.0045   -1.2443 C.3       1 <0>        -0.1459
      6 C6          0.7928   -2.0023   -1.2330 C.2       1 <0>         0.3755
      7 O1          0.2923   -2.6169   -0.3215 O.2       1 <0>        -0.4044
      8 C7          1.3996   -2.7344   -2.3812 C.2       1 <0>         0.4747
      9 O2          1.8023   -2.1206   -3.3477 O.2       1 <0>        -0.4794
     10 N1          1.5008   -4.0779   -2.3461 N.am      1 <0>        -0.5769
     11 C8          0.8889   -4.8464   -1.2535 C.3       1 <0>         0.0472
     12 C9          1.9580   -5.7446   -0.6234 C.3       1 <0>        -0.1356
     13 C10         2.6026   -6.6048   -1.7127 C.3       1 <0>        -0.1202
     14 C11         3.2790   -5.7005   -2.7456 C.3       1 <0>        -0.1231
     15 C12         2.2201   -4.8023   -3.4028 C.3       1 <0>         0.1476
     16 C13         2.8920   -3.8166   -4.3236 C.2       1 <0>         0.4797
     17 O3          3.7726   -3.1028   -3.9056 O.2       1 <0>        -0.4941
     18 O4          2.5121   -3.7317   -5.6082 O.3       1 <0>        -0.3514
     19 C14         3.1920   -2.7755   -6.4240 C.3       1 <0>         0.0726
     20 C15         2.6267   -2.8236   -7.8449 C.3       1 <0>        -0.1187
     21 C16         3.3547   -1.7998   -8.7183 C.3       1 <0>        -0.1122
     22 C17         2.7894   -1.8479  -10.1392 C.3       1 <0>        -0.0850
     23 C18         3.1003   -3.2085  -10.7660 C.3       1 <0>        -0.1171
     24 C19         2.5351   -3.2566  -12.1870 C.3       1 <0>        -0.1207
     25 C20         3.1743   -2.1497  -13.0279 C.3       1 <0>        -0.1209
     26 C21         2.8634   -0.7891  -12.4011 C.3       1 <0>        -0.1203
     27 C22         3.4287   -0.7410  -10.9801 C.3       1 <0>        -0.1151
     28 H1          1.1646    1.8856    0.0674 H         1 <0>         0.0602
     29 H2         -0.4025    1.9102   -0.7764 H         1 <0>         0.0602
     30 H3         -0.3500    1.8821    1.0025 H         1 <0>         0.0589
     31 H4          0.6607   -0.3812    0.9369 H         1 <0>         0.0696
     32 H5         -0.9064   -0.3566    0.0931 H         1 <0>         0.0698
     33 H6          0.0577    1.1289   -2.4118 H         1 <0>         0.0761
     34 H7          0.5344   -0.3137   -3.3391 H         1 <0>         0.0804
     35 H8         -0.9801   -0.3172   -2.4039 H         1 <0>         0.0566
     36 H9          2.7866   -0.3764   -0.3757 H         1 <0>         0.0568
     37 H10         2.7340   -0.3483   -2.1547 H         1 <0>         0.0779
     38 H11         2.2574    1.0943   -1.2273 H         1 <0>         0.0767
     39 H12         0.4963   -4.1626   -0.5010 H         1 <0>         0.1557
     40 H13         0.0806   -5.4622   -1.6480 H         1 <0>         0.0744
     41 H14         2.7202   -5.1257   -0.1500 H         1 <0>         0.0684
     42 H15         1.4966   -6.3898    0.1243 H         1 <0>         0.0833
     43 H16         3.3467   -7.2625   -1.2632 H         1 <0>         0.0763
     44 H17         1.8360   -7.2053   -2.2023 H         1 <0>         0.0703
     45 H18         4.0288   -5.0820   -2.2522 H         1 <0>         0.0826
     46 H19         3.7579   -6.3144   -3.5085 H         1 <0>         0.0846
     47 H20         1.5181   -5.4145   -3.9689 H         1 <0>         0.1078
     48 H21         3.0491   -1.7774   -6.0097 H         1 <0>         0.0703
     49 H22         4.2562   -3.0099   -6.4482 H         1 <0>         0.0627
     50 H23         2.7696   -3.8216   -8.2592 H         1 <0>         0.0745
     51 H24         1.5625   -2.5892   -7.8207 H         1 <0>         0.0726
     52 H25         3.2118   -0.8018   -8.3040 H         1 <0>         0.0664
     53 H26         4.4189   -2.0342   -8.7425 H         1 <0>         0.0655
     54 H27         1.7099   -1.7013  -10.1060 H         1 <0>         0.0712
     55 H28         4.1799   -3.3551  -10.7993 H         1 <0>         0.0615
     56 H29         2.6449   -3.9971  -10.1669 H         1 <0>         0.0640
     57 H30         2.7566   -4.2260  -12.6335 H         1 <0>         0.0605
     58 H31         1.4555   -3.1101  -12.1537 H         1 <0>         0.0608
     59 H32         4.2539   -2.2963  -13.0611 H         1 <0>         0.0607
     60 H33         2.7716   -2.1840  -14.0402 H         1 <0>         0.0599
     61 H34         3.3188   -0.0005  -13.0001 H         1 <0>         0.0608
     62 H35         1.7838   -0.6425  -12.3678 H         1 <0>         0.0610
     63 H36         3.2072    0.2284  -10.5336 H         1 <0>         0.0615
     64 H37         4.5083   -0.8875  -11.0134 H         1 <0>         0.0619
@<TRIPOS>BOND
     1    1    2 1
     2    1   28 1
     3    1   29 1
     4    1   30 1
     5    2    3 1
     6    2   31 1
     7    2   32 1
     8    3    4 1
     9    3    5 1
    10    3    6 1
    11    4   33 1
    12    4   34 1
    13    4   35 1
    14    5   36 1
    15    5   37 1
    16    5   38 1
    17    6    7 2
    18    6    8 1
    19    8    9 2
    20    8   10 am
    21   10   15 1
    22   10   11 1
    23   11   12 1
    24   11   39 1
    25   11   40 1
    26   12   13 1
    27   12   41 1
    28   12   42 1
    29   13   14 1
    30   13   43 1
    31   13   44 1
    32   14   15 1
    33   14   45 1
    34   14   46 1
    35   15   16 1
    36   15   47 1
    37   16   17 2
    38   16   18 1
    39   18   19 1
    40   19   20 1
    41   19   48 1
    42   19   49 1
    43   20   21 1
    44   20   50 1
    45   20   51 1
    46   21   22 1
    47   21   52 1
    48   21   53 1
    49   22   27 1
    50   22   23 1
    51   22   54 1
    52   23   24 1
    53   23   55 1
    54   23   56 1
    55   24   25 1
    56   24   57 1
    57   24   58 1
    58   25   26 1
    59   25   59 1
    60   25   60 1
    61   26   27 1
    62   26   61 1
    63   26   62 1
    64   27   63 1
    65   27   64 1
@<TRIPOS>MOLECULE
CHEMBL107698__1
   64    65     0     0     0
SMALL
USER_CHARGES

@<TRIPOS>ATOM
      1 C1          1.2434    1.5667    0.5057 C.3       1 <0>        -0.1557
      2 C2          1.2791    0.0371    0.5031 C.3       1 <0>        -0.1081
      3 C3          1.5981   -0.4632   -0.9072 C.3       1 <0>        -0.0876
      4 C4          0.5195    0.0234   -1.8771 C.3       1 <0>        -0.1457
      5 C5          2.9600    0.0795   -1.3450 C.3       1 <0>        -0.1471
      6 C6          1.6332   -1.9698   -0.9098 C.2       1 <0>         0.3701
      7 O1          1.4246   -2.5805    0.1112 O.2       1 <0>        -0.4067
      8 C7          1.9255   -2.7065   -2.1725 C.2       1 <0>         0.4724
      9 O2          2.2802   -2.0988   -3.1614 O.2       1 <0>        -0.4771
     10 N1          1.7958   -4.0473   -2.2160 N.am      1 <0>        -0.5785
     11 C8          1.2217   -4.7810   -1.0798 C.3       1 <0>         0.0722
     12 C9          0.0663   -5.6496   -1.5869 C.3       1 <0>        -0.1393
     13 C10         0.5662   -6.5433   -2.7243 C.3       1 <0>        -0.1194
     14 C11         1.0590   -5.6714   -3.8815 C.3       1 <0>        -0.1252
     15 C12         2.2201   -4.8023   -3.4028 C.3       1 <0>         0.1500
     16 C13         2.6155   -3.8440   -4.4965 C.2       1 <0>         0.4765
     17 O3          1.7750   -3.1667   -5.0393 O.2       1 <0>        -0.4861
     18 O4          3.9015   -3.7429   -4.8677 O.3       1 <0>        -0.3541
     19 C14         4.2046   -2.8145   -5.9109 C.3       1 <0>         0.0725
     20 C15         5.7079   -2.8387   -6.1944 C.3       1 <0>        -0.1189
     21 C16         6.0324   -1.8447   -7.3113 C.3       1 <0>        -0.1123
     22 C17         7.5357   -1.8689   -7.5947 C.3       1 <0>        -0.0848
     23 C18         8.2944   -1.3604   -6.3672 C.3       1 <0>        -0.1171
     24 C19         9.7977   -1.3847   -6.6507 C.3       1 <0>        -0.1206
     25 C20        10.1053   -0.4848   -7.8493 C.3       1 <0>        -0.1209
     26 C21         9.3466   -0.9933   -9.0767 C.3       1 <0>        -0.1203
     27 C22         7.8433   -0.9691   -8.7933 C.3       1 <0>        -0.1151
     28 H1          2.2136    1.9533    0.1938 H         1 <0>         0.0602
     29 H2          0.4749    1.9133   -0.1853 H         1 <0>         0.0601
     30 H3          1.0161    1.9231    1.5104 H         1 <0>         0.0587
     31 H4          2.0475   -0.3096    1.1940 H         1 <0>         0.0695
     32 H5          0.3088   -0.3495    0.8149 H         1 <0>         0.0692
     33 H6          0.4940    1.1131   -1.8752 H         1 <0>         0.0769
     34 H7          0.7467   -0.3330   -2.8818 H         1 <0>         0.0762
     35 H8         -0.4508   -0.3632   -1.5652 H         1 <0>         0.0568
     36 H9          3.7284   -0.2672   -0.6540 H         1 <0>         0.0561
     37 H10         3.1872   -0.2770   -2.3497 H         1 <0>         0.0809
     38 H11         2.9345    1.1692   -1.3431 H         1 <0>         0.0752
     39 H12         1.9860   -5.4154   -0.6308 H         1 <0>         0.0782
     40 H13         0.8493   -4.0738   -0.3387 H         1 <0>         0.1352
     41 H14        -0.3061   -6.2713   -0.7727 H         1 <0>         0.0846
     42 H15        -0.7365   -5.0096   -1.9531 H         1 <0>         0.0692
     43 H16         1.3855   -7.1654   -2.3640 H         1 <0>         0.0707
     44 H17        -0.2479   -7.1800   -3.0705 H         1 <0>         0.0770
     45 H18         1.3931   -6.3084   -4.7004 H         1 <0>         0.0852
     46 H19         0.2469   -5.0311   -4.2261 H         1 <0>         0.0837
     47 H20         3.0676   -5.4385   -3.1474 H         1 <0>         0.1076
     48 H21         3.6601   -3.0918   -6.8136 H         1 <0>         0.0629
     49 H22         3.9092   -1.8118   -5.6020 H         1 <0>         0.0703
     50 H23         6.2523   -2.5615   -5.2917 H         1 <0>         0.0751
     51 H24         6.0033   -3.8415   -6.5033 H         1 <0>         0.0717
     52 H25         5.4879   -2.1220   -8.2139 H         1 <0>         0.0657
     53 H26         5.7370   -0.8420   -7.0024 H         1 <0>         0.0662
     54 H27         7.8471   -2.8895   -7.8172 H         1 <0>         0.0710
     55 H28         7.9830   -0.3398   -6.1447 H         1 <0>         0.0617
     56 H29         8.0753   -2.0015   -5.5133 H         1 <0>         0.0638
     57 H30        10.3382   -1.0224   -5.7762 H         1 <0>         0.0605
     58 H31        10.1091   -2.4053   -6.8732 H         1 <0>         0.0607
     59 H32         9.7939    0.5358   -7.6268 H         1 <0>         0.0608
     60 H33        11.1763   -0.5021   -8.0512 H         1 <0>         0.0599
     61 H34         9.5657   -0.3523   -9.9306 H         1 <0>         0.0608
     62 H35         9.6580   -2.0140   -9.2993 H         1 <0>         0.0609
     63 H36         7.3028   -1.3314   -9.6678 H         1 <0>         0.0614
     64 H37         7.5319    0.0515   -8.5708 H         1 <0>         0.0620
@<TRIPOS>BOND
     1    1    2 1
     2    1   28 1
     3    1   29 1
     4    1   30 1
     5    2    3 1
     6    2   31 1
     7    2   32 1
     8    3    4 1
     9    3    5 1
    10    3    6 1
    11    4   33 1
    12    4   34 1
    13    4   35 1
    14    5   36 1
    15    5   37 1
    16    5   38 1
    17    6    7 2
    18    6    8 1
    19    8    9 2
    20    8   10 am
    21   10   15 1
    22   10   11 1
    23   11   12 1
    24   11   39 1
    25   11   40 1
    26   12   13 1
    27   12   41 1
    28   12   42 1
    29   13   14 1
    30   13   43 1
    31   13   44 1
    32   14   15 1
    33   14   45 1
    34   14   46 1
    35   15   16 1
    36   15   47 1
    37   16   17 2
    38   16   18 1
    39   18   19 1
    40   19   20 1
    41   19   48 1
    42   19   49 1
    43   20   21 1
    44   20   50 1
    45   20   51 1
    46   21   22 1
    47   21   52 1
    48   21   53 1
    49   22   27 1
    50   22   23 1
    51   22   54 1
    52   23   24 1
    53   23   55 1
    54   23   56 1
    55   24   25 1
    56   24   57 1
    57   24   58 1
    58   25   26 1
    59   25   59 1
    60   25   60 1
    61   26   27 1
    62   26   61 1
    63   26   62 1
    64   27   63 1
    65   27   64 1
@<TRIPOS>MOLECULE
CHEMBL149011
   77    80     0     0     0
SMALL
USER_CHARGES

@<TRIPOS>ATOM
      1 C1         -4.7727   -1.4187    0.1554 C.3       1 <0>        -0.1257
      2 C2         -3.3329   -1.5612    0.5770 C.ar      1 <0>        -0.0267
      3 C3         -2.9806   -2.5022    1.5264 C.ar      1 <0>        -0.1480
      4 C4         -1.6599   -2.6328    1.9132 C.ar      1 <0>         0.0003
      5 C5         -0.6915   -1.8228    1.3503 C.ar      1 <0>        -0.6826
      6 C6         -1.0437   -0.8824    0.4002 C.ar      1 <0>        -0.0205
      7 C7         -2.3637   -0.7547    0.0103 C.ar      1 <0>        -0.1485
      8 S1          0.9918   -1.9886    1.8441 S.o2      1 <0>         2.6832
      9 O1          1.6202   -0.7442    1.5688 O.2       1 <0>        -0.9509
     10 O2          0.9791   -2.5647    3.1430 O.2       1 <0>        -0.9346
     11 N1          1.6895   -3.1039    0.8384 N.pl3     1 <0>        -0.9876
     12 C8          2.1731   -2.7126   -0.4927 C.3       1 <0>         0.1226
     13 C9          1.5421   -3.6377   -1.5381 C.3       1 <0>        -0.1389
     14 C10         1.8326   -5.0936   -1.1668 C.3       1 <0>        -0.1149
     15 C11         1.2101   -5.4085    0.1954 C.3       1 <0>        -0.1224
     16 C12         1.8424   -4.5022    1.2626 C.3       1 <0>         0.1637
     17 C13         1.1441   -4.7091    2.5820 C.2       1 <0>         0.4727
     18 O3         -0.0590   -4.6201    2.6492 O.2       1 <0>        -0.5015
     19 O4          1.8587   -4.9923    3.6824 O.3       1 <0>        -0.3258
     20 C14         1.1300   -5.1944    4.8949 C.3       1 <0>         0.0962
     21 C15         0.9070   -6.6924    5.1123 C.3       1 <0>        -0.1401
     22 C16         0.0069   -7.2402    4.0030 C.3       1 <0>        -0.1100
     23 C17        -0.2161   -8.7382    4.2204 C.3       1 <0>        -0.0816
     24 C18        -1.1028   -9.2778    3.1278 C.ar      1 <0>        -0.0787
     25 C19        -2.4756   -9.2798    3.2895 C.ar      1 <0>        -0.1172
     26 C20        -3.2889   -9.7748    2.2872 C.ar      1 <0>        -0.1175
     27 C21        -2.7294  -10.2674    1.1231 C.ar      1 <0>        -0.1262
     28 C22        -1.3565  -10.2646    0.9611 C.ar      1 <0>        -0.1178
     29 C23        -0.5435   -9.7656    1.9615 C.ar      1 <0>        -0.1187
     30 C24         1.9256   -4.6215    6.0695 C.3       1 <0>        -0.1157
     31 C25         2.1031   -3.1139    5.8783 C.3       1 <0>        -0.1063
     32 C26         2.9024   -2.5417    7.0508 C.3       1 <0>        -0.0835
     33 C27         3.0772   -1.0568    6.8624 C.ar      1 <0>        -0.0771
     34 C28         4.1726   -0.5718    6.1726 C.ar      1 <0>        -0.1190
     35 C29         4.3329    0.7903    5.9999 C.ar      1 <0>        -0.1177
     36 C30         3.3977    1.6674    6.5165 C.ar      1 <0>        -0.1273
     37 C31         2.3018    1.1824    7.2055 C.ar      1 <0>        -0.1191
     38 C32         2.1392   -0.1800    7.3746 C.ar      1 <0>        -0.1193
     39 H1         -4.9721   -2.0819   -0.6863 H         1 <0>         0.0788
     40 H2         -5.4233   -1.6837    0.9888 H         1 <0>         0.0726
     41 H3         -4.9641   -0.3875   -0.1413 H         1 <0>         0.0723
     42 H4         -3.7372   -3.1350    1.9662 H         1 <0>         0.1293
     43 H5         -1.3848   -3.3675    2.6554 H         1 <0>         0.1674
     44 H6         -0.2871   -0.2493   -0.0393 H         1 <0>         0.1340
     45 H7         -2.6383   -0.0225   -0.7346 H         1 <0>         0.1306
     46 H8          1.8863   -1.6810   -0.6969 H         1 <0>         0.0913
     47 H9          3.2584   -2.8064   -0.5293 H         1 <0>         0.0830
     48 H10         0.4643   -3.4767   -1.5631 H         1 <0>         0.0704
     49 H11         1.9657   -3.4208   -2.5187 H         1 <0>         0.0819
     50 H12         1.4058   -5.7532   -1.9223 H         1 <0>         0.0742
     51 H13         2.9106   -5.2477   -1.1177 H         1 <0>         0.0703
     52 H14         0.1355   -5.2308    0.1540 H         1 <0>         0.0834
     53 H15         1.3973   -6.4520    0.4485 H         1 <0>         0.0814
     54 H16         2.9013   -4.7390    1.3662 H         1 <0>         0.1097
     55 H17         0.1663   -4.6895    4.8281 H         1 <0>         0.0942
     56 H18         1.8663   -7.2095    5.0904 H         1 <0>         0.0727
     57 H19         0.4301   -6.8522    6.0793 H         1 <0>         0.0805
     58 H20        -0.9524   -6.7231    4.0249 H         1 <0>         0.0706
     59 H21         0.4837   -7.0804    3.0360 H         1 <0>         0.0581
     60 H22         0.7431   -9.2553    4.1984 H         1 <0>         0.0713
     61 H23        -0.6930   -8.8980    5.1874 H         1 <0>         0.0721
     62 H24        -2.9128   -8.8949    4.1990 H         1 <0>         0.1198
     63 H25        -4.3615   -9.7770    2.4139 H         1 <0>         0.1204
     64 H26        -3.3647  -10.6547    0.3404 H         1 <0>         0.1198
     65 H27        -0.9194  -10.6497    0.0517 H         1 <0>         0.1203
     66 H28         0.5289   -9.7600    1.8333 H         1 <0>         0.1190
     67 H29         1.3875   -4.8090    6.9987 H         1 <0>         0.0790
     68 H30         2.9040   -5.0999    6.1134 H         1 <0>         0.0707
     69 H31         2.6385   -2.9263    4.9476 H         1 <0>         0.0750
     70 H32         1.1247   -2.6352    5.8375 H         1 <0>         0.0683
     71 H33         2.3669   -2.7294    7.9815 H         1 <0>         0.0693
     72 H34         3.8807   -3.0205    7.0916 H         1 <0>         0.0702
     73 H35         4.9032   -1.2570    5.7690 H         1 <0>         0.1199
     74 H36         5.1891    1.1693    5.4616 H         1 <0>         0.1208
     75 H37         3.5233    2.7316    6.3822 H         1 <0>         0.1200
     76 H38         1.5713    1.8676    7.6095 H         1 <0>         0.1201
     77 H39         1.2811   -0.5591    7.9097 H         1 <0>         0.1196
@<TRIPOS>BOND
     1    1    2 1
     2    1   39 1
     3    1   40 1
     4    1   41 1
     5    2    7 ar
     6    2    3 ar
     7    3    4 ar
     8    3   42 1
     9    4    5 ar
    10    4   43 1
    11    5    6 ar
    12    5    8 1
    13    6    7 ar
    14    6   44 1
    15    7   45 1
    16    8    9 2
    17    8   10 2
    18    8   11 1
    19   11   16 1
    20   11   12 1
    21   12   13 1
    22   12   46 1
    23   12   47 1
    24   13   14 1
    25   13   48 1
    26   13   49 1
    27   14   15 1
    28   14   50 1
    29   14   51 1
    30   15   16 1
    31   15   52 1
    32   15   53 1
    33   16   17 1
    34   16   54 1
    35   17   18 2
    36   17   19 1
    37   19   20 1
    38   20   21 1
    39   20   30 1
    40   20   55 1
    41   21   22 1
    42   21   56 1
    43   21   57 1
    44   22   23 1
    45   22   58 1
    46   22   59 1
    47   23   24 1
    48   23   60 1
    49   23   61 1
    50   24   29 ar
    51   24   25 ar
    52   25   26 ar
    53   25   62 1
    54   26   27 ar
    55   26   63 1
    56   27   28 ar
    57   27   64 1
    58   28   29 ar
    59   28   65 1
    60   29   66 1
    61   30   31 1
    62   30   67 1
    63   30   68 1
    64   31   32 1
    65   31   69 1
    66   31   70 1
    67   32   33 1
    68   32   71 1
    69   32   72 1
    70   33   38 ar
    71   33   34 ar
    72   34   35 ar
    73   34   73 1
    74   35   36 ar
    75   35   74 1
    76   36   37 ar
    77   36   75 1
    78   37   38 ar
    79   37   76 1
    80   38   77 1
@<TRIPOS>MOLECULE
CHEMBL149011__1
   77    80     0     0     0
SMALL
USER_CHARGES

@<TRIPOS>ATOM
      1 C1         -1.8760    2.0167   -1.1610 C.3       1 <0>        -0.1262
      2 C2         -0.8865    1.0565   -0.5527 C.ar      1 <0>        -0.0261
      3 C3         -1.2831    0.2061    0.4623 C.ar      1 <0>        -0.1438
      4 C4         -0.3755   -0.6747    1.0203 C.ar      1 <0>        -0.0084
      5 C5          0.9286   -0.7054    0.5629 C.ar      1 <0>        -0.6865
      6 C6          1.3250    0.1444   -0.4527 C.ar      1 <0>        -0.0192
      7 C7          0.4163    1.0223   -1.0136 C.ar      1 <0>        -0.1452
      8 S1          2.0858   -1.8273    1.2749 S.o2      1 <0>         2.6771
      9 O1          3.3789   -1.3530    0.9257 O.2       1 <0>        -0.9450
     10 O2          1.6847   -2.0226    2.6241 O.2       1 <0>        -0.9227
     11 N1          1.8923   -3.2823    0.5083 N.pl3     1 <0>        -0.9887
     12 C8          2.5603   -3.5479   -0.7731 C.3       1 <0>         0.1178
     13 C9          3.3622   -4.8475   -0.6511 C.3       1 <0>        -0.1341
     14 C10         2.4362   -5.9713   -0.1802 C.3       1 <0>        -0.1185
     15 C11         1.8683   -5.6230    1.1976 C.3       1 <0>        -0.1290
     16 C12         1.0543   -4.3344    1.0996 C.3       1 <0>         0.1632
     17 C13         0.6114   -3.9131    2.4770 C.2       1 <0>         0.4702
     18 O3         -0.4293   -3.3164    2.6207 O.2       1 <0>        -0.5018
     19 O4          1.3731   -4.2006    3.5442 O.3       1 <0>        -0.3220
     20 C14         0.8636   -3.8247    4.8252 C.3       1 <0>         0.0999
     21 C15         0.1333   -5.0138    5.4526 C.3       1 <0>        -0.1411
     22 C16        -1.0981   -5.3573    4.6121 C.3       1 <0>        -0.1099
     23 C17        -1.8283   -6.5464    5.2395 C.3       1 <0>        -0.0814
     24 C18        -3.0412   -6.8847    4.4116 C.ar      1 <0>        -0.0791
     25 C19        -4.2553   -6.2836    4.6865 C.ar      1 <0>        -0.1172
     26 C20        -5.3679   -6.5940    3.9271 C.ar      1 <0>        -0.1175
     27 C21        -5.2663   -7.5051    2.8925 C.ar      1 <0>        -0.1264
     28 C22        -4.0520   -8.1055    2.6170 C.ar      1 <0>        -0.1182
     29 C23        -2.9385   -7.7919    3.3737 C.ar      1 <0>        -0.1190
     30 C24         2.0220   -3.4020    5.7308 C.3       1 <0>        -0.1136
     31 C25         2.7157   -2.1763    5.1331 C.3       1 <0>        -0.1012
     32 C26         3.7449   -1.6367    6.1283 C.3       1 <0>        -0.0859
     33 C27         4.4281   -0.4294    5.5395 C.ar      1 <0>        -0.0772
     34 C28         5.5750   -0.5845    4.7836 C.ar      1 <0>        -0.1180
     35 C29         6.2018    0.5229    4.2435 C.ar      1 <0>        -0.1158
     36 C30         5.6814    1.7853    4.4590 C.ar      1 <0>        -0.1280
     37 C31         4.5340    1.9403    5.2142 C.ar      1 <0>        -0.1199
     38 C32         3.9048    0.8325    5.7507 C.ar      1 <0>        -0.1201
     39 H1         -2.3785    1.5371   -2.0009 H         1 <0>         0.0801
     40 H2         -2.6137    2.3019   -0.4109 H         1 <0>         0.0735
     41 H3         -1.3514    2.9058   -1.5110 H         1 <0>         0.0734
     42 H4         -2.3020    0.2300    0.8197 H         1 <0>         0.1321
     43 H5         -0.6852   -1.3387    1.8138 H         1 <0>         0.1530
     44 H6          2.3440    0.1207   -0.8098 H         1 <0>         0.1379
     45 H7          0.7250    1.6836   -1.8097 H         1 <0>         0.1329
     46 H8          1.8132   -3.6521   -1.5600 H         1 <0>         0.0758
     47 H9          3.2332   -2.7244   -1.0120 H         1 <0>         0.0957
     48 H10         3.7845   -5.1069   -1.6219 H         1 <0>         0.0817
     49 H11         4.1667   -4.7121    0.0717 H         1 <0>         0.0735
     50 H12         1.6182   -6.0896   -0.8908 H         1 <0>         0.0677
     51 H13         2.9989   -6.9026   -0.1162 H         1 <0>         0.0745
     52 H14         1.2273   -6.4343    1.5426 H         1 <0>         0.0830
     53 H15         2.6869   -5.4802    1.9030 H         1 <0>         0.0867
     54 H16         0.1817   -4.5041    0.4688 H         1 <0>         0.1148
     55 H17         0.1698   -2.9918    4.7101 H         1 <0>         0.0922
     56 H18         0.8018   -5.8740    5.4862 H         1 <0>         0.0720
     57 H19        -0.1781   -4.7559    6.4649 H         1 <0>         0.0795
     58 H20        -1.7666   -4.4970    4.5785 H         1 <0>         0.0706
     59 H21        -0.7867   -5.6151    3.5998 H         1 <0>         0.0569
     60 H22        -1.1598   -7.4067    5.2731 H         1 <0>         0.0712
     61 H23        -2.1397   -6.2885    6.2518 H         1 <0>         0.0722
     62 H24        -4.3347   -5.5718    5.4949 H         1 <0>         0.1200
     63 H25        -6.3166   -6.1249    4.1424 H         1 <0>         0.1207
     64 H26        -6.1357   -7.7481    2.2996 H         1 <0>         0.1201
     65 H27        -3.9727   -8.8176    1.8089 H         1 <0>         0.1205
     66 H28        -1.9889   -8.2582    3.1561 H         1 <0>         0.1191
     67 H29         1.6380   -3.1554    6.7207 H         1 <0>         0.0775
     68 H30         2.7371   -4.2206    5.8121 H         1 <0>         0.0688
     69 H31         3.2182   -2.4584    4.2079 H         1 <0>         0.0710
     70 H32         1.9742   -1.4054    4.9233 H         1 <0>         0.0721
     71 H33         3.2424   -1.3546    7.0535 H         1 <0>         0.0692
     72 H34         4.4864   -2.4076    6.3381 H         1 <0>         0.0695
     73 H35         5.9816   -1.5708    4.6152 H         1 <0>         0.1196
     74 H36         7.0982    0.4019    3.6534 H         1 <0>         0.1208
     75 H37         6.1715    2.6506    4.0376 H         1 <0>         0.1196
     76 H38         4.1276    2.9266    5.3828 H         1 <0>         0.1196
     77 H39         3.0063    0.9532    6.3376 H         1 <0>         0.1195
@<TRIPOS>BOND
     1    1    2 1
     2    1   39 1
     3    1   40 1
     4    1   41 1
     5    2    7 ar
     6    2    3 ar
     7    3    4 ar
     8    3   42 1
     9    4    5 ar
    10    4   43 1
    11    5    6 ar
    12    5    8 1
    13    6    7 ar
    14    6   44 1
    15    7   45 1
    16    8    9 2
    17    8   10 2
    18    8   11 1
    19   11   16 1
    20   11   12 1
    21   12   13 1
    22   12   46 1
    23   12   47 1
    24   13   14 1
    25   13   48 1
    26   13   49 1
    27   14   15 1
    28   14   50 1
    29   14   51 1
    30   15   16 1
    31   15   52 1
    32   15   53 1
    33   16   17 1
    34   16   54 1
    35   17   18 2
    36   17   19 1
    37   19   20 1
    38   20   21 1
    39   20   30 1
    40   20   55 1
    41   21   22 1
    42   21   56 1
    43   21   57 1
    44   22   23 1
    45   22   58 1
    46   22   59 1
    47   23   24 1
    48   23   60 1
    49   23   61 1
    50   24   29 ar
    51   24   25 ar
    52   25   26 ar
    53   25   62 1
    54   26   27 ar
    55   26   63 1
    56   27   28 ar
    57   27   64 1
    58   28   29 ar
    59   28   65 1
    60   29   66 1
    61   30   31 1
    62   30   67 1
    63   30   68 1
    64   31   32 1
    65   31   69 1
    66   31   70 1
    67   32   33 1
    68   32   71 1
    69   32   72 1
    70   33   38 ar
    71   33   34 ar
    72   34   35 ar
    73   34   73 1
    74   35   36 ar
    75   35   74 1
    76   36   37 ar
    77   36   75 1
    78   37   38 ar
    79   37   76 1
    80   38   77 1
@<TRIPOS>MOLECULE
CHEMBL33860
   75    79     0     0     0
SMALL
USER_CHARGES

@<TRIPOS>ATOM
      1 C1         -7.3093    4.9594   -1.4594 C.3       1 <0>         0.0270
      2 O1         -6.2087    4.2205   -0.9256 O.3       1 <0>        -0.3173
      3 C2         -6.3834    2.8823   -0.7660 C.ar      1 <0>         0.1632
      4 C3         -7.5881    2.2919   -1.1216 C.ar      1 <0>        -0.2423
      5 C4         -7.7663    0.9315   -0.9596 C.ar      1 <0>        -0.0378
      6 C5         -6.7463    0.1553   -0.4428 C.ar      1 <0>        -0.1486
      7 C6         -5.5401    0.7409   -0.0858 C.ar      1 <0>         0.1708
      8 C7         -5.3566    2.1050   -0.2532 C.ar      1 <0>        -0.2422
      9 O2         -4.5375   -0.0228    0.4223 O.3       1 <0>        -0.3073
     10 C8         -3.3234    0.6468    0.7681 C.3       1 <0>         0.0242
     11 C9         -6.9444   -1.3281   -0.2665 C.3       1 <0>        -0.0618
     12 C10        -7.3964   -1.6155    1.1667 C.3       1 <0>        -0.1095
     13 C11        -7.5975   -3.1216    1.3458 C.3       1 <0>         0.0767
     14 O3         -8.0197   -3.3900    2.6844 O.3       1 <0>        -0.3557
     15 C12        -8.2415   -4.6737    3.0076 C.2       1 <0>         0.4803
     16 O4         -8.0826   -5.5409    2.1813 O.2       1 <0>        -0.4838
     17 C13        -8.6889   -5.0335    4.4009 C.3       1 <0>         0.1755
     18 C14        -7.7514   -6.0962    4.9830 C.3       1 <0>        -0.1262
     19 C15        -8.2897   -6.5578    6.3392 C.3       1 <0>        -0.1166
     20 C16        -9.6739   -7.1838    6.1543 C.3       1 <0>        -0.1379
     21 C17       -10.6331   -6.1335    5.5856 C.3       1 <0>         0.1145
     22 N1        -10.0521   -5.5795    4.3550 N.am      1 <0>        -0.6229
     23 C18       -10.7563   -5.5724    3.2059 C.2       1 <0>         0.7068
     24 O5        -10.2392   -5.1784    2.1784 O.2       1 <0>        -0.5530
     25 N2        -12.0338   -6.0020    3.1957 N.am      1 <0>        -0.7371
     26 C19       -12.7633   -6.1008    1.9291 C.3       1 <0>         0.2023
     27 C20       -12.8320   -4.7212    1.2711 C.3       1 <0>        -0.1214
     28 C21       -13.5938   -4.8245   -0.0517 C.3       1 <0>        -0.0821
     29 C22       -15.0118   -5.3336    0.2148 C.3       1 <0>        -0.1111
     30 C23       -14.9431   -6.7132    0.8728 C.3       1 <0>        -0.0794
     31 C24       -14.1812   -6.6099    2.1956 C.3       1 <0>        -0.1140
     32 C25       -14.2183   -7.6869   -0.0586 C.3       1 <0>        -0.1111
     33 C26       -12.8003   -7.1777   -0.3251 C.3       1 <0>        -0.0818
     34 C27       -12.8690   -5.7982   -0.9831 C.3       1 <0>        -0.1082
     35 C28       -12.0384   -7.0745    0.9977 C.3       1 <0>        -0.1200
     36 H1         -7.0375    6.0122   -1.5350 H         1 <0>         0.1013
     37 H2         -7.5581    4.5764   -2.4491 H         1 <0>         0.0574
     38 H3         -8.1716    4.8530   -0.8013 H         1 <0>         0.0574
     39 H4         -8.3869    2.8964   -1.5250 H         1 <0>         0.1300
     40 H5         -8.7044    0.4739   -1.2369 H         1 <0>         0.1328
     41 H6         -4.4169    2.5619    0.0199 H         1 <0>         0.1365
     42 H7         -2.6086   -0.0765    1.1606 H         1 <0>         0.1021
     43 H8         -2.9068    1.1248   -0.1185 H         1 <0>         0.0573
     44 H9         -3.5286    1.4028    1.5260 H         1 <0>         0.0575
     45 H10        -7.7047   -1.6787   -0.9644 H         1 <0>         0.0732
     46 H11        -6.0054   -1.8459   -0.4620 H         1 <0>         0.0779
     47 H12        -6.6361   -1.2649    1.8647 H         1 <0>         0.0737
     48 H13        -8.3354   -1.0977    1.3623 H         1 <0>         0.0707
     49 H14        -8.3579   -3.4721    0.6478 H         1 <0>         0.0692
     50 H15        -6.6585   -3.6393    1.1502 H         1 <0>         0.0620
     51 H16        -8.6725   -4.1442    5.0310 H         1 <0>         0.0990
     52 H17        -7.6995   -6.9469    4.3035 H         1 <0>         0.0824
     53 H18        -6.7558   -5.6717    5.1120 H         1 <0>         0.0827
     54 H19        -7.6114   -7.2961    6.7668 H         1 <0>         0.0751
     55 H20        -8.3647   -5.7022    7.0104 H         1 <0>         0.0698
     56 H21        -9.6038   -8.0243    5.4638 H         1 <0>         0.0706
     57 H22       -10.0466   -7.5334    7.1171 H         1 <0>         0.0809
     58 H23       -11.5924   -6.5990    5.3594 H         1 <0>         0.0816
     59 H24       -10.7747   -5.3353    6.3143 H         1 <0>         0.0752
     60 H25       -12.4701   -6.2457    4.0270 H         1 <0>         0.3932
     61 H26       -13.3484   -4.0275    1.9346 H         1 <0>         0.0563
     62 H27       -11.8218   -4.3585    1.0812 H         1 <0>         0.0899
     63 H28       -13.6428   -3.8416   -0.5205 H         1 <0>         0.0708
     64 H29       -15.5282   -4.6399    0.8783 H         1 <0>         0.0617
     65 H30       -15.5546   -5.4071   -0.7276 H         1 <0>         0.0644
     66 H31       -15.9533   -7.0759    1.0627 H         1 <0>         0.0746
     67 H32       -14.1323   -7.5928    2.6644 H         1 <0>         0.0671
     68 H33       -14.6976   -5.9162    2.8591 H         1 <0>         0.0675
     69 H34       -14.1693   -8.6697    0.4102 H         1 <0>         0.0617
     70 H35       -14.7610   -7.7604   -1.0009 H         1 <0>         0.0646
     71 H36       -12.2839   -7.8714   -0.9886 H         1 <0>         0.0711
     72 H37       -13.4117   -5.8717   -1.9254 H         1 <0>         0.0615
     73 H38       -11.8588   -5.4355   -1.1729 H         1 <0>         0.0644
     74 H39       -11.0282   -6.7118    0.8079 H         1 <0>         0.0864
     75 H40       -11.9895   -8.0573    1.4665 H         1 <0>         0.0564
@<TRIPOS>BOND
     1    1    2 1
     2    1   36 1
     3    1   37 1
     4    1   38 1
     5    2    3 1
     6    3    8 ar
     7    3    4 ar
     8    4    5 ar
     9    4   39 1
    10    5    6 ar
    11    5   40 1
    12    6    7 ar
    13    6   11 1
    14    7    8 ar
    15    7    9 1
    16    8   41 1
    17    9   10 1
    18   10   42 1
    19   10   43 1
    20   10   44 1
    21   11   12 1
    22   11   45 1
    23   11   46 1
    24   12   13 1
    25   12   47 1
    26   12   48 1
    27   13   14 1
    28   13   49 1
    29   13   50 1
    30   14   15 1
    31   15   16 2
    32   15   17 1
    33   17   22 1
    34   17   18 1
    35   17   51 1
    36   18   19 1
    37   18   52 1
    38   18   53 1
    39   19   20 1
    40   19   54 1
    41   19   55 1
    42   20   21 1
    43   20   56 1
    44   20   57 1
    45   21   22 1
    46   21   58 1
    47   21   59 1
    48   22   23 am
    49   23   24 2
    50   23   25 am
    51   25   26 1
    52   25   60 1
    53   26   31 1
    54   26   35 1
    55   26   27 1
    56   27   28 1
    57   27   61 1
    58   27   62 1
    59   28   34 1
    60   28   29 1
    61   28   63 1
    62   29   30 1
    63   29   64 1
    64   29   65 1
    65   30   31 1
    66   30   32 1
    67   30   66 1
    68   31   67 1
    69   31   68 1
    70   32   33 1
    71   32   69 1
    72   32   70 1
    73   33   34 1
    74   33   35 1
    75   33   71 1
    76   34   72 1
    77   34   73 1
    78   35   74 1
    79   35   75 1
@<TRIPOS>MOLECULE
CHEMBL33860__1
   75    79     0     0     0
SMALL
USER_CHARGES

@<TRIPOS>ATOM
      1 C1          0.7087   -7.0634   -2.1637 C.3       1 <0>         0.0270
      2 O1         -0.5371   -7.7324   -2.3693 O.3       1 <0>        -0.3173
      3 C2         -1.6608   -7.0802   -1.9707 C.ar      1 <0>         0.1632
      4 C3         -1.5660   -5.8193   -1.3986 C.ar      1 <0>        -0.2427
      5 C4         -2.7079   -5.1557   -0.9931 C.ar      1 <0>        -0.0382
      6 C5         -3.9471   -5.7456   -1.1557 C.ar      1 <0>        -0.1490
      7 C6         -4.0471   -7.0060   -1.7271 C.ar      1 <0>         0.1713
      8 C7         -2.9030   -7.6713   -2.1405 C.ar      1 <0>        -0.2424
      9 O2         -5.2660   -7.5855   -1.8866 O.3       1 <0>        -0.3063
     10 C8         -5.2939   -8.8843   -2.4821 C.3       1 <0>         0.0245
     11 C9         -5.1906   -5.0195   -0.7114 C.3       1 <0>        -0.0618
     12 C10        -5.5670   -5.4701    0.7015 C.3       1 <0>        -0.1096
     13 C11        -6.8296   -4.7329    1.1525 C.3       1 <0>         0.0763
     14 O3         -7.1811   -5.1537    2.4721 O.3       1 <0>        -0.3540
     15 C12        -8.2738   -4.5974    3.0183 C.2       1 <0>         0.4815
     16 O4         -8.9107   -3.7802    2.3966 O.2       1 <0>        -0.4873
     17 C13        -8.7062   -4.9922    4.4069 C.3       1 <0>         0.1757
     18 C14        -8.7421   -3.7520    5.3056 C.3       1 <0>        -0.1268
     19 C15        -9.3138   -4.1341    6.6728 C.3       1 <0>        -0.1164
     20 C16       -10.7449   -4.6494    6.5033 C.3       1 <0>        -0.1395
     21 C17       -10.7317   -5.8997    5.6182 C.3       1 <0>         0.1155
     22 N1        -10.0526   -5.5781    4.3556 N.am      1 <0>        -0.6238
     23 C18       -10.6533   -5.8162    3.1729 C.2       1 <0>         0.7089
     24 O5        -10.0414   -5.6485    2.1356 O.2       1 <0>        -0.5540
     25 N2        -11.9322   -6.2401    3.1398 N.am      1 <0>        -0.7370
     26 C19       -12.5501   -6.6052    1.8627 C.3       1 <0>         0.2025
     27 C20       -12.5374   -5.3957    0.9258 C.3       1 <0>        -0.1218
     28 C21       -13.1827   -5.7769   -0.4081 C.3       1 <0>        -0.0825
     29 C22       -14.6271   -6.2204   -0.1675 C.3       1 <0>        -0.1113
     30 C23       -14.6399   -7.4300    0.7694 C.3       1 <0>        -0.0794
     31 C24       -13.9945   -7.0487    2.1033 C.3       1 <0>        -0.1142
     32 C25       -13.8536   -8.5772    0.1319 C.3       1 <0>        -0.1108
     33 C26       -12.4092   -8.1337   -0.1087 C.3       1 <0>        -0.0813
     34 C27       -12.3964   -6.9242   -1.0456 C.3       1 <0>        -0.1080
     35 C28       -11.7638   -7.7525    1.2251 C.3       1 <0>        -0.1194
     36 H1          1.5226   -7.6919   -2.5250 H         1 <0>         0.1012
     37 H2          0.7087   -6.1197   -2.7092 H         1 <0>         0.0574
     38 H3          0.8451   -6.8682   -1.1000 H         1 <0>         0.0574
     39 H4         -0.5986   -5.3565   -1.2699 H         1 <0>         0.1301
     40 H5         -2.6320   -4.1746   -0.5481 H         1 <0>         0.1329
     41 H6         -2.9792   -8.6506   -2.5896 H         1 <0>         0.1364
     42 H7         -6.3251   -9.2304   -2.5507 H         1 <0>         0.1020
     43 H8         -4.8598   -8.8355   -3.4807 H         1 <0>         0.0573
     44 H9         -4.7179   -9.5775   -1.8690 H         1 <0>         0.0573
     45 H10        -5.0043   -3.9455   -0.7127 H         1 <0>         0.0727
     46 H11        -6.0082   -5.2472   -1.3953 H         1 <0>         0.0783
     47 H12        -5.7534   -6.5440    0.7027 H         1 <0>         0.0747
     48 H13        -4.7494   -5.2423    1.3854 H         1 <0>         0.0704
     49 H14        -6.6432   -3.6589    1.1512 H         1 <0>         0.0608
     50 H15        -7.6472   -4.9606    0.4686 H         1 <0>         0.0705
     51 H16        -8.0057   -5.7211    4.8144 H         1 <0>         0.0999
     52 H17        -7.7314   -3.3633    5.4296 H         1 <0>         0.0833
     53 H18        -9.3722   -2.9893    4.8480 H         1 <0>         0.0810
     54 H19        -8.6974   -4.9145    7.1190 H         1 <0>         0.0702
     55 H20        -9.3176   -3.2588    7.3223 H         1 <0>         0.0752
     56 H21       -11.1596   -4.8993    7.4799 H         1 <0>         0.0811
     57 H22       -11.3561   -3.8782    6.0345 H         1 <0>         0.0705
     58 H23       -10.1968   -6.7018    6.1268 H         1 <0>         0.0760
     59 H24       -11.7553   -6.2130    5.4131 H         1 <0>         0.0812
     60 H25       -12.4435   -6.3036    3.9617 H         1 <0>         0.3929
     61 H26       -13.0975   -4.5783    1.3799 H         1 <0>         0.0557
     62 H27       -11.5083   -5.0797    0.7543 H         1 <0>         0.0932
     63 H28       -13.1736   -4.9153   -1.0755 H         1 <0>         0.0709
     64 H29       -15.1873   -5.4031    0.2867 H         1 <0>         0.0617
     65 H30       -15.0869   -6.4920   -1.1177 H         1 <0>         0.0642
     66 H31       -15.6689   -7.7459    0.9409 H         1 <0>         0.0746
     67 H32       -14.0036   -7.9104    2.7707 H         1 <0>         0.0670
     68 H33       -14.5547   -6.2314    2.5574 H         1 <0>         0.0673
     69 H34       -13.8627   -9.4389    0.7994 H         1 <0>         0.0617
     70 H35       -14.3133   -8.8488   -0.8183 H         1 <0>         0.0647
     71 H36       -11.8490   -8.9510   -0.5629 H         1 <0>         0.0710
     72 H37       -12.8562   -7.1958   -1.9958 H         1 <0>         0.0614
     73 H38       -11.3674   -6.6082   -1.2170 H         1 <0>         0.0644
     74 H39       -10.7348   -7.4365    1.0537 H         1 <0>         0.0831
     75 H40       -11.7729   -8.6141    1.8926 H         1 <0>         0.0571
@<TRIPOS>BOND
     1    1    2 1
     2    1   36 1
     3    1   37 1
     4    1   38 1
     5    2    3 1
     6    3    8 ar
     7    3    4 ar
     8    4    5 ar
     9    4   39 1
    10    5    6 ar
    11    5   40 1
    12    6    7 ar
    13    6   11 1
    14    7    8 ar
    15    7    9 1
    16    8   41 1
    17    9   10 1
    18   10   42 1
    19   10   43 1
    20   10   44 1
    21   11   12 1
    22   11   45 1
    23   11   46 1
    24   12   13 1
    25   12   47 1
    26   12   48 1
    27   13   14 1
    28   13   49 1
    29   13   50 1
    30   14   15 1
    31   15   16 2
    32   15   17 1
    33   17   22 1
    34   17   18 1
    35   17   51 1
    36   18   19 1
    37   18   52 1
    38   18   53 1
    39   19   20 1
    40   19   54 1
    41   19   55 1
    42   20   21 1
    43   20   56 1
    44   20   57 1
    45   21   22 1
    46   21   58 1
    47   21   59 1
    48   22   23 am
    49   23   24 2
    50   23   25 am
    51   25   26 1
    52   25   60 1
    53   26   31 1
    54   26   35 1
    55   26   27 1
    56   27   28 1
    57   27   61 1
    58   27   62 1
    59   28   34 1
    60   28   29 1
    61   28   63 1
    62   29   30 1
    63   29   64 1
    64   29   65 1
    65   30   31 1
    66   30   32 1
    67   30   66 1
    68   31   67 1
    69   31   68 1
    70   32   33 1
    71   32   69 1
    72   32   70 1
    73   33   34 1
    74   33   35 1
    75   33   71 1
    76   34   72 1
    77   34   73 1
    78   35   74 1
    79   35   75 1
@<TRIPOS>MOLECULE
CHEMBL127050
   53    56     0     0     0
SMALL
USER_CHARGES

@<TRIPOS>ATOM
      1 C1         -0.0167    1.3781    0.0096 C.ar      1 <0>        -0.1227
      2 C2          1.1709    2.0855    0.0021 C.ar      1 <0>        -0.1180
      3 C3          2.3773    1.4107   -0.0130 C.ar      1 <0>        -0.1164
      4 C4          2.3960    0.0285   -0.0201 C.ar      1 <0>        -0.0839
      5 C5          1.2084   -0.6789   -0.0117 C.ar      1 <0>        -0.1161
      6 C6          0.0021   -0.0041    0.0020 C.ar      1 <0>        -0.1176
      7 C7          3.7112   -0.7071   -0.0376 C.3       1 <0>        -0.0773
      8 C8          4.1714   -0.9633    1.3989 C.3       1 <0>        -0.1135
      9 C9          5.5066   -1.7102    1.3812 C.3       1 <0>         0.0651
     10 O1          5.9364   -1.9494    2.7229 O.3       1 <0>        -0.3440
     11 C10         7.0995   -2.5999    2.8833 C.2       1 <0>         0.4451
     12 O2          7.7318   -2.9544    1.9166 O.2       1 <0>        -0.4864
     13 C11         7.6168   -2.8880    4.2691 C.3       1 <0>         0.1634
     14 H1          6.7987   -3.1939    4.9212 H         1 <0>         0.1208
     15 C12         8.3319   -1.6296    4.8522 C.3       1 <0>        -0.0904
     16 C13         9.2877   -1.1748    3.7052 C.3       1 <0>        -0.1280
     17 C14        10.3333   -2.3106    3.6122 C.3       1 <0>        -0.1396
     18 C15         9.9146   -3.3182    4.7259 C.3       1 <0>         0.1358
     19 C16         9.3542   -2.3364    5.8139 C.3       1 <0>        -0.1273
     20 N1          8.6540   -3.9396    4.2206 N.pl3     1 <0>        -0.9921
     21 S1          8.4557   -5.5009    3.7057 S.o2      1 <0>         2.7021
     22 O3          9.4766   -6.2672    4.3299 O.2       1 <0>        -0.9482
     23 O4          7.0757   -5.8055    3.8545 O.2       1 <0>        -0.9541
     24 C17         8.7933   -5.5261    1.9765 C.ar      1 <0>        -0.6646
     25 C18         7.7727   -5.3084    1.0698 C.ar      1 <0>         0.0187
     26 C19         8.0375   -5.3282   -0.2868 C.ar      1 <0>        -0.1399
     27 C20         9.3230   -5.5651   -0.7367 C.ar      1 <0>        -0.0606
     28 C21        10.3437   -5.7819    0.1700 C.ar      1 <0>        -0.1443
     29 C22        10.0797   -5.7579    1.5267 C.ar      1 <0>        -0.0188
     30 H2         -0.9591    1.9053    0.0259 H         1 <0>         0.1218
     31 H3          1.1563    3.1654    0.0076 H         1 <0>         0.1223
     32 H4          3.3051    1.9634   -0.0196 H         1 <0>         0.1213
     33 H5          1.2231   -1.7588   -0.0176 H         1 <0>         0.1218
     34 H6         -0.9258   -0.5567    0.0082 H         1 <0>         0.1226
     35 H7          3.5884   -1.6586   -0.5549 H         1 <0>         0.0764
     36 H8          4.4573   -0.1052   -0.5563 H         1 <0>         0.0761
     37 H9          4.2941   -0.0118    1.9163 H         1 <0>         0.0775
     38 H10         3.4252   -1.5652    1.9176 H         1 <0>         0.0782
     39 H11         5.3838   -2.6617    0.8639 H         1 <0>         0.0690
     40 H12         6.2527   -1.1082    0.8625 H         1 <0>         0.0698
     41 H13         7.6899   -0.8673    5.2935 H         1 <0>         0.1304
     42 H14         8.7407   -1.0818    2.7669 H         1 <0>         0.0679
     43 H15         9.7702   -0.2318    3.9618 H         1 <0>         0.0767
     44 H16        10.2916   -2.7870    2.6327 H         1 <0>         0.0789
     45 H17        11.3338   -1.9236    3.8058 H         1 <0>         0.0787
     46 H18        10.6918   -4.0064    5.0581 H         1 <0>         0.1348
     47 H19        10.1169   -1.6496    6.1808 H         1 <0>         0.0965
     48 H20         8.8568   -2.8640    6.6278 H         1 <0>         0.0868
     49 H21         6.7685   -5.1233    1.4213 H         1 <0>         0.1248
     50 H22         7.2401   -5.1588   -0.9952 H         1 <0>         0.1273
     51 H23         9.5297   -5.5812   -1.7966 H         1 <0>         0.1279
     52 H24        11.3479   -5.9673   -0.1816 H         1 <0>         0.1303
     53 H25        10.8778   -5.9235    2.2351 H         1 <0>         0.1353
@<TRIPOS>BOND
     1    1    6 ar
     2    1    2 ar
     3    1   30 1
     4    2    3 ar
     5    2   31 1
     6    3    4 ar
     7    3   32 1
     8    4    5 ar
     9    4    7 1
    10    5    6 ar
    11    5   33 1
    12    6   34 1
    13    7    8 1
    14    7   35 1
    15    7   36 1
    16    8    9 1
    17    8   37 1
    18    8   38 1
    19    9   10 1
    20    9   39 1
    21    9   40 1
    22   10   11 1
    23   11   12 2
    24   11   13 1
    25   13   14 1
    26   13   20 1
    27   13   15 1
    28   15   19 1
    29   15   16 1
    30   15   41 1
    31   16   17 1
    32   16   42 1
    33   16   43 1
    34   17   18 1
    35   17   44 1
    36   17   45 1
    37   18   19 1
    38   18   20 1
    39   18   46 1
    40   19   47 1
    41   19   48 1
    42   20   21 1
    43   21   22 2
    44   21   23 2
    45   21   24 1
    46   24   29 ar
    47   24   25 ar
    48   25   26 ar
    49   25   49 1
    50   26   27 ar
    51   26   50 1
    52   27   28 ar
    53   27   51 1
    54   28   29 ar
    55   28   52 1
    56   29   53 1
@<TRIPOS>MOLECULE
CHEMBL127050__1
   53    56     0     0     0
SMALL
USER_CHARGES

@<TRIPOS>ATOM
      1 C1         -0.0167    1.3781    0.0096 C.ar      1 <0>        -0.1227
      2 C2          1.1709    2.0855    0.0021 C.ar      1 <0>        -0.1181
      3 C3          2.3773    1.4107   -0.0130 C.ar      1 <0>        -0.1164
      4 C4          2.3960    0.0285   -0.0201 C.ar      1 <0>        -0.0840
      5 C5          1.2084   -0.6789   -0.0117 C.ar      1 <0>        -0.1160
      6 C6          0.0021   -0.0041    0.0020 C.ar      1 <0>        -0.1176
      7 C7          3.7112   -0.7071   -0.0376 C.3       1 <0>        -0.0774
      8 C8          4.1714   -0.9633    1.3989 C.3       1 <0>        -0.1135
      9 C9          5.5066   -1.7102    1.3812 C.3       1 <0>         0.0647
     10 O1          5.9364   -1.9494    2.7229 O.3       1 <0>        -0.3436
     11 C10         7.0995   -2.5999    2.8833 C.2       1 <0>         0.4399
     12 O2          7.7318   -2.9544    1.9166 O.2       1 <0>        -0.4872
     13 C11         7.6168   -2.8880    4.2691 C.3       1 <0>         0.1658
     14 H1          6.7987   -3.1939    4.9212 H         1 <0>         0.1225
     15 C12         8.3319   -1.6296    4.8522 C.3       1 <0>        -0.0905
     16 C13         8.5804   -1.9977    6.3485 C.3       1 <0>        -0.1188
     17 C14         9.6173   -3.1437    6.2883 C.3       1 <0>        -0.1383
     18 C15         9.9035   -3.3311    4.7671 C.3       1 <0>         0.1417
     19 C16         9.7701   -1.8525    4.2594 C.3       1 <0>        -0.1379
     20 N1          8.6540   -3.9396    4.2206 N.pl3     1 <0>        -0.9918
     21 S1          8.4660   -5.4890    3.6671 S.o2      1 <0>         2.7006
     22 O3          9.4722   -6.2701    4.2970 O.2       1 <0>        -0.9470
     23 O4          7.0828   -5.7950    3.7784 O.2       1 <0>        -0.9541
     24 C17         8.8421   -5.4765    1.9457 C.ar      1 <0>        -0.6662
     25 C18         7.8422   -5.2376    1.0215 C.ar      1 <0>         0.0217
     26 C19         8.1373   -5.2278   -0.3289 C.ar      1 <0>        -0.1411
     27 C20         9.4322   -5.4565   -0.7552 C.ar      1 <0>        -0.0606
     28 C21        10.4323   -5.6944    0.1691 C.ar      1 <0>        -0.1451
     29 C22        10.1380   -5.7000    1.5197 C.ar      1 <0>        -0.0198
     30 H2         -0.9591    1.9053    0.0259 H         1 <0>         0.1218
     31 H3          1.1563    3.1654    0.0076 H         1 <0>         0.1223
     32 H4          3.3051    1.9634   -0.0196 H         1 <0>         0.1213
     33 H5          1.2231   -1.7588   -0.0176 H         1 <0>         0.1218
     34 H6         -0.9258   -0.5567    0.0082 H         1 <0>         0.1225
     35 H7          3.5884   -1.6586   -0.5549 H         1 <0>         0.0765
     36 H8          4.4573   -0.1052   -0.5563 H         1 <0>         0.0763
     37 H9          4.2941   -0.0118    1.9163 H         1 <0>         0.0776
     38 H10         3.4252   -1.5652    1.9176 H         1 <0>         0.0782
     39 H11         5.3838   -2.6617    0.8639 H         1 <0>         0.0691
     40 H12         6.2527   -1.1082    0.8625 H         1 <0>         0.0703
     41 H13         7.8619   -0.6671    4.6503 H         1 <0>         0.1259
     42 H14         8.9870   -1.1431    6.8893 H         1 <0>         0.0797
     43 H15         7.6576   -2.3421    6.8152 H         1 <0>         0.0754
     44 H16        10.5286   -2.8603    6.8149 H         1 <0>         0.0831
     45 H17         9.2001   -4.0570    6.7124 H         1 <0>         0.0758
     46 H18        10.8358   -3.8389    4.5200 H         1 <0>         0.1284
     47 H19         9.7816   -1.7880    3.1714 H         1 <0>         0.0833
     48 H20        10.5095   -1.1928    4.7135 H         1 <0>         0.0949
     49 H21         6.8305   -5.0590    1.3546 H         1 <0>         0.1251
     50 H22         7.3560   -5.0419   -1.0510 H         1 <0>         0.1275
     51 H23         9.6626   -5.4495   -1.8103 H         1 <0>         0.1281
     52 H24        11.4439   -5.8734   -0.1640 H         1 <0>         0.1305
     53 H25        10.9200   -5.8822    2.2420 H         1 <0>         0.1352
@<TRIPOS>BOND
     1    1    6 ar
     2    1    2 ar
     3    1   30 1
     4    2    3 ar
     5    2   31 1
     6    3    4 ar
     7    3   32 1
     8    4    5 ar
     9    4    7 1
    10    5    6 ar
    11    5   33 1
    12    6   34 1
    13    7    8 1
    14    7   35 1
    15    7   36 1
    16    8    9 1
    17    8   37 1
    18    8   38 1
    19    9   10 1
    20    9   39 1
    21    9   40 1
    22   10   11 1
    23   11   12 2
    24   11   13 1
    25   13   14 1
    26   13   20 1
    27   13   15 1
    28   15   19 1
    29   15   16 1
    30   15   41 1
    31   16   17 1
    32   16   42 1
    33   16   43 1
    34   17   18 1
    35   17   44 1
    36   17   45 1
    37   18   19 1
    38   18   20 1
    39   18   46 1
    40   19   47 1
    41   19   48 1
    42   20   21 1
    43   21   22 2
    44   21   23 2
    45   21   24 1
    46   24   29 ar
    47   24   25 ar
    48   25   26 ar
    49   25   49 1
    50   26   27 ar
    51   26   50 1
    52   27   28 ar
    53   27   51 1
    54   28   29 ar
    55   28   52 1
    56   29   53 1
@<TRIPOS>MOLECULE
CHEMBL146527
   55    57     0     0     0
SMALL
USER_CHARGES

@<TRIPOS>ATOM
      1 C1          1.9109    2.8770   -0.0168 C.ar      1 <0>        -0.1255
      2 C2          2.5061    3.2422    1.1762 C.ar      1 <0>        -0.1181
      3 C3          3.7599    2.7583    1.4997 C.ar      1 <0>        -0.1179
      4 C4          4.4183    1.9088    0.6304 C.ar      1 <0>        -0.0825
      5 C5          3.8228    1.5428   -0.5622 C.ar      1 <0>        -0.1183
      6 C6          2.5695    2.0279   -0.8863 C.ar      1 <0>        -0.1186
      7 C7          5.7856    1.3820    0.9826 C.3       1 <0>        -0.0800
      8 C8          5.6430    0.0680    1.7532 C.3       1 <0>        -0.1103
      9 C9          7.0312   -0.4668    2.1108 C.3       1 <0>        -0.1198
     10 C10         6.8885   -1.7809    2.8814 C.3       1 <0>         0.0724
     11 O1          8.1851   -2.2803    3.2154 O.3       1 <0>        -0.3321
     12 C11         8.2361   -3.4350    3.8979 C.2       1 <0>         0.4657
     13 O2          7.2137   -4.0029    4.2017 O.2       1 <0>        -0.5047
     14 C12         9.5684   -4.0232    4.2852 C.3       1 <0>         0.1654
     15 C13         9.5988   -5.5107    3.9203 C.3       1 <0>        -0.1244
     16 C14        10.8965   -6.1331    4.4405 C.3       1 <0>        -0.1152
     17 C15        10.9487   -6.0086    5.9649 C.3       1 <0>        -0.1397
     18 C16        10.9337   -4.5267    6.3530 C.3       1 <0>         0.1213
     19 N1          9.7637   -3.8879    5.7352 N.pl3     1 <0>        -0.9872
     20 S1          8.6856   -3.0317    6.6555 S.o2      1 <0>         2.6837
     21 O3          9.4201   -2.4942    7.7467 O.2       1 <0>        -0.9471
     22 O4          7.9456   -2.2144    5.7590 O.2       1 <0>        -0.9421
     23 C17         7.5468   -4.1907    7.3371 C.ar      1 <0>        -0.6764
     24 C18         6.3111   -4.3753    6.7456 C.ar      1 <0>         0.0022
     25 C19         5.4177   -5.2845    7.2803 C.ar      1 <0>        -0.1435
     26 C20         5.7602   -6.0095    8.4064 C.ar      1 <0>        -0.0606
     27 C21         6.9962   -5.8256    8.9974 C.ar      1 <0>        -0.1449
     28 C22         7.8913   -4.9194    8.4601 C.ar      1 <0>        -0.0228
     29 H1          0.9294    3.2514   -0.2675 H         1 <0>         0.1207
     30 H2          1.9916    3.9059    1.8553 H         1 <0>         0.1215
     31 H3          4.2252    3.0442    2.4314 H         1 <0>         0.1214
     32 H4          4.3374    0.8794   -1.2415 H         1 <0>         0.1209
     33 H5          2.1044    1.7422   -1.8183 H         1 <0>         0.1213
     34 H6          6.3542    1.2077    0.0691 H         1 <0>         0.0743
     35 H7          6.3076    2.1116    1.6018 H         1 <0>         0.0749
     36 H8          5.0744    0.2423    2.6667 H         1 <0>         0.0685
     37 H9          5.1210   -0.6615    1.1340 H         1 <0>         0.0669
     38 H10         7.5998   -0.6412    1.1973 H         1 <0>         0.0729
     39 H11         7.5532    0.2627    2.7300 H         1 <0>         0.0767
     40 H12         6.3199   -1.6065    3.7948 H         1 <0>         0.0783
     41 H13         6.3666   -2.5104    2.2622 H         1 <0>         0.0631
     42 H14        10.3661   -3.4992    3.7586 H         1 <0>         0.1129
     43 H15         8.7458   -6.0144    4.3751 H         1 <0>         0.0841
     44 H16         9.5513   -5.6205    2.8368 H         1 <0>         0.0833
     45 H17        10.9319   -7.1860    4.1607 H         1 <0>         0.0750
     46 H18        11.7492   -5.6127    4.0042 H         1 <0>         0.0711
     47 H19        10.0831   -6.5076    6.4005 H         1 <0>         0.0708
     48 H20        11.8621   -6.4728    6.3367 H         1 <0>         0.0830
     49 H21        10.8708   -4.4336    7.4372 H         1 <0>         0.0935
     50 H22        11.8441   -4.0460    5.9951 H         1 <0>         0.0846
     51 H23         6.0436   -3.8089    5.8658 H         1 <0>         0.1529
     52 H24         4.4521   -5.4282    6.8186 H         1 <0>         0.1318
     53 H25         5.0619   -6.7194    8.8246 H         1 <0>         0.1305
     54 H26         7.2636   -6.3918    9.8774 H         1 <0>         0.1326
     55 H27         8.8584   -4.7784    8.9197 H         1 <0>         0.1334
@<TRIPOS>BOND
     1    1    6 ar
     2    1    2 ar
     3    1   29 1
     4    2    3 ar
     5    2   30 1
     6    3    4 ar
     7    3   31 1
     8    4    5 ar
     9    4    7 1
    10    5    6 ar
    11    5   32 1
    12    6   33 1
    13    7    8 1
    14    7   34 1
    15    7   35 1
    16    8    9 1
    17    8   36 1
    18    8   37 1
    19    9   10 1
    20    9   38 1
    21    9   39 1
    22   10   11 1
    23   10   40 1
    24   10   41 1
    25   11   12 1
    26   12   13 2
    27   12   14 1
    28   14   19 1
    29   14   15 1
    30   14   42 1
    31   15   16 1
    32   15   43 1
    33   15   44 1
    34   16   17 1
    35   16   45 1
    36   16   46 1
    37   17   18 1
    38   17   47 1
    39   17   48 1
    40   18   19 1
    41   18   49 1
    42   18   50 1
    43   19   20 1
    44   20   21 2
    45   20   22 2
    46   20   23 1
    47   23   28 ar
    48   23   24 ar
    49   24   25 ar
    50   24   51 1
    51   25   26 ar
    52   25   52 1
    53   26   27 ar
    54   26   53 1
    55   27   28 ar
    56   27   54 1
    57   28   55 1
@<TRIPOS>MOLECULE
CHEMBL146527__1
   55    57     0     0     0
SMALL
USER_CHARGES

@<TRIPOS>ATOM
      1 C1         -2.1533   -3.9761    3.2045 C.ar      1 <0>        -0.1255
      2 C2         -1.4167   -4.0775    2.0391 C.ar      1 <0>        -0.1185
      3 C3         -0.1328   -4.5884    2.0753 C.ar      1 <0>        -0.1183
      4 C4          0.4148   -4.9974    3.2769 C.ar      1 <0>        -0.0826
      5 C5         -0.3215   -4.8951    4.4424 C.ar      1 <0>        -0.1179
      6 C6         -1.6060   -4.3856    4.4060 C.ar      1 <0>        -0.1181
      7 C7          1.8142   -5.5553    3.3162 C.3       1 <0>        -0.0800
      8 C8          2.8109   -4.4168    3.5429 C.3       1 <0>        -0.1104
      9 C9          4.2316   -4.9832    3.5828 C.3       1 <0>        -0.1200
     10 C10         5.2283   -3.8447    3.8095 C.3       1 <0>         0.0715
     11 O1          6.5553   -4.3737    3.8468 O.3       1 <0>        -0.3349
     12 C11         7.5548   -3.4988    4.0396 C.2       1 <0>         0.4700
     13 O2          7.3112   -2.3228    4.1724 O.2       1 <0>        -0.5058
     14 C12         8.9809   -3.9833    4.0905 C.3       1 <0>         0.1646
     15 C13         9.8363   -3.1653    3.1179 C.3       1 <0>        -0.1245
     16 C14        11.3048   -3.5663    3.2749 C.3       1 <0>        -0.1151
     17 C15        11.7692   -3.2610    4.7008 C.3       1 <0>        -0.1396
     18 C16        10.9357   -4.0802    5.6914 C.3       1 <0>         0.1225
     19 N1          9.5122   -3.8090    5.4492 N.pl3     1 <0>        -0.9875
     20 S1          8.5252   -3.3161    6.6843 S.o2      1 <0>         2.6847
     21 O3          7.1897   -3.4882    6.2302 O.2       1 <0>        -0.9425
     22 O4          9.0137   -3.9353    7.8663 O.2       1 <0>        -0.9484
     23 C17         8.7691   -1.5828    6.8860 C.ar      1 <0>        -0.6768
     24 C18         9.7453   -1.1178    7.7472 C.ar      1 <0>        -0.0242
     25 C19         9.9366    0.2421    7.9055 C.ar      1 <0>        -0.1457
     26 C20         9.1521    1.1370    7.2022 C.ar      1 <0>        -0.0609
     27 C21         8.1765    0.6720    6.3403 C.ar      1 <0>        -0.1452
     28 C22         7.9881   -0.6879    6.1788 C.ar      1 <0>        -0.0069
     29 H1         -3.1548   -3.5728    3.1769 H         1 <0>         0.1207
     30 H2         -1.8445   -3.7580    1.1004 H         1 <0>         0.1213
     31 H3          0.4425   -4.6683    1.1648 H         1 <0>         0.1209
     32 H4          0.1061   -5.2150    5.3811 H         1 <0>         0.1214
     33 H5         -2.1814   -4.3060    5.3165 H         1 <0>         0.1215
     34 H6          1.8951   -6.2764    4.1295 H         1 <0>         0.0748
     35 H7          2.0353   -6.0487    2.3698 H         1 <0>         0.0743
     36 H8          2.7299   -3.6956    2.7296 H         1 <0>         0.0671
     37 H9          2.5897   -3.9234    4.4893 H         1 <0>         0.0686
     38 H10         4.3126   -5.7043    4.3961 H         1 <0>         0.0763
     39 H11         4.4528   -5.4766    2.6364 H         1 <0>         0.0731
     40 H12         5.1473   -3.1236    2.9962 H         1 <0>         0.0639
     41 H13         5.0071   -3.3513    4.7560 H         1 <0>         0.0795
     42 H14         9.0187   -5.0375    3.8159 H         1 <0>         0.1132
     43 H15         9.5129   -3.3613    2.0956 H         1 <0>         0.0839
     44 H16         9.7235   -2.1038    3.3385 H         1 <0>         0.0836
     45 H17        11.4130   -4.6330    3.0783 H         1 <0>         0.0713
     46 H18        11.9127   -3.0033    2.5667 H         1 <0>         0.0751
     47 H19        12.8215   -3.5252    4.8052 H         1 <0>         0.0829
     48 H20        11.6381   -2.1987    4.9065 H         1 <0>         0.0708
     49 H21        11.1352   -5.1419    5.5463 H         1 <0>         0.0844
     50 H22        11.1941   -3.7936    6.7108 H         1 <0>         0.0926
     51 H23        10.3582   -1.8169    8.2967 H         1 <0>         0.1359
     52 H24        10.6988    0.6054    8.5789 H         1 <0>         0.1324
     53 H25         9.3011    2.1994    7.3264 H         1 <0>         0.1301
     54 H26         7.5634    1.3711    5.7910 H         1 <0>         0.1315
     55 H27         7.2284   -1.0513    5.5025 H         1 <0>         0.1649
@<TRIPOS>BOND
     1    1    6 ar
     2    1    2 ar
     3    1   29 1
     4    2    3 ar
     5    2   30 1
     6    3    4 ar
     7    3   31 1
     8    4    5 ar
     9    4    7 1
    10    5    6 ar
    11    5   32 1
    12    6   33 1
    13    7    8 1
    14    7   34 1
    15    7   35 1
    16    8    9 1
    17    8   36 1
    18    8   37 1
    19    9   10 1
    20    9   38 1
    21    9   39 1
    22   10   11 1
    23   10   40 1
    24   10   41 1
    25   11   12 1
    26   12   13 2
    27   12   14 1
    28   14   19 1
    29   14   15 1
    30   14   42 1
    31   15   16 1
    32   15   43 1
    33   15   44 1
    34   16   17 1
    35   16   45 1
    36   16   46 1
    37   17   18 1
    38   17   47 1
    39   17   48 1
    40   18   19 1
    41   18   49 1
    42   18   50 1
    43   19   20 1
    44   20   21 2
    45   20   22 2
    46   20   23 1
    47   23   28 ar
    48   23   24 ar
    49   24   25 ar
    50   24   51 1
    51   25   26 ar
    52   25   52 1
    53   26   27 ar
    54   26   53 1
    55   27   28 ar
    56   27   54 1
    57   28   55 1
@<TRIPOS>MOLECULE
CHEMBL298173
   80    82     0     0     0
SMALL
USER_CHARGES

@<TRIPOS>ATOM
      1 C1         -5.8751   -5.7462    6.9309 C.3       1 <0>        -0.1551
      2 C2         -4.8977   -6.0711    5.7995 C.3       1 <0>        -0.1088
      3 C3         -5.3292   -5.3394    4.5269 C.3       1 <0>        -0.0847
      4 C4         -6.7362   -5.7914    4.1309 C.3       1 <0>        -0.1438
      5 C5         -5.3309   -3.8308    4.7818 C.3       1 <0>        -0.1562
      6 C6         -4.3665   -5.6594    3.4125 C.2       1 <0>         0.3721
      7 O1         -3.4741   -6.4527    3.5946 O.2       1 <0>        -0.4073
      8 C7         -4.5157   -4.9969    2.0853 C.2       1 <0>         0.4657
      9 O2         -5.3937   -4.1773    1.9115 O.2       1 <0>        -0.4581
     10 N1         -3.6756   -5.3082    1.0785 N.am      1 <0>        -0.5781
     11 C8         -2.5223   -6.1884    1.3109 C.3       1 <0>         0.0568
     12 C9         -1.2551   -5.4803    0.8214 C.3       1 <0>        -0.1362
     13 C10        -1.4415   -5.0609   -0.6386 C.3       1 <0>        -0.1219
     14 C11        -2.6132   -4.0821   -0.7443 C.3       1 <0>        -0.1169
     15 C12        -3.8990   -4.7788   -0.2737 C.3       1 <0>         0.1448
     16 C13        -5.0328   -3.7865   -0.2468 C.2       1 <0>         0.4803
     17 O3         -4.8147   -2.6145   -0.4438 O.2       1 <0>        -0.4974
     18 O4         -6.2850   -4.2045   -0.0039 O.3       1 <0>        -0.3245
     19 C14        -7.3303   -3.2412   -0.1497 C.3       1 <0>         0.0997
     20 C15        -8.6314   -3.9532   -0.5254 C.3       1 <0>        -0.1156
     21 C16        -8.4799   -4.5980   -1.9046 C.3       1 <0>        -0.1125
     22 C17        -9.7809   -5.3101   -2.2804 C.3       1 <0>        -0.0806
     23 C18        -9.6318   -5.9451   -3.6388 C.ar      1 <0>        -0.0810
     24 C19        -9.9593   -5.2303   -4.7757 C.ar      1 <0>        -0.1189
     25 C20        -9.8225   -5.8128   -6.0219 C.ar      1 <0>        -0.1180
     26 C21        -9.3577   -7.1101   -6.1311 C.ar      1 <0>        -0.1260
     27 C22        -9.0293   -7.8246   -4.9943 C.ar      1 <0>        -0.1183
     28 C23        -9.1620   -7.2406   -3.7484 C.ar      1 <0>        -0.1183
     29 C24        -7.5217   -2.4925    1.1708 C.3       1 <0>        -0.1252
     30 C25        -6.2881   -1.6325    1.4529 C.3       1 <0>        -0.1089
     31 C26        -6.4445   -0.9465    2.8116 C.3       1 <0>        -0.0841
     32 C27        -5.2886   -0.0058    3.0353 C.ar      1 <0>        -0.0709
     33 C28        -4.1370   -0.4599    3.6506 C.ar      1 <0>        -0.1180
     34 C29        -3.0767    0.4029    3.8559 C.ar      1 <0>        -0.1188
     35 C30        -3.1678    1.7198    3.4455 C.ar      1 <0>        -0.1284
     36 C31        -4.3191    2.1737    2.8294 C.ar      1 <0>        -0.1176
     37 C32        -5.3777    1.3097    2.6203 C.ar      1 <0>        -0.1193
     38 H1         -5.5677   -6.2675    7.8374 H         1 <0>         0.0579
     39 H2         -5.8763   -4.6715    7.1125 H         1 <0>         0.0596
     40 H3         -6.8775   -6.0682    6.6487 H         1 <0>         0.0600
     41 H4         -3.8953   -5.7492    6.0816 H         1 <0>         0.0677
     42 H5         -4.8965   -7.1459    5.6179 H         1 <0>         0.0695
     43 H6         -7.4325   -5.5599    4.9369 H         1 <0>         0.0756
     44 H7         -7.0436   -5.2701    3.2243 H         1 <0>         0.0784
     45 H8         -6.7350   -6.8661    3.9493 H         1 <0>         0.0564
     46 H9         -4.3517   -3.5232    5.1488 H         1 <0>         0.0554
     47 H10        -5.5522   -3.3056    3.8527 H         1 <0>         0.0895
     48 H11        -6.0901   -3.5889    5.5256 H         1 <0>         0.0745
     49 H12        -2.4337   -6.4009    2.3763 H         1 <0>         0.1475
     50 H13        -2.6564   -7.1195    0.7604 H         1 <0>         0.0729
     51 H14        -1.0726   -4.5969    1.4332 H         1 <0>         0.0677
     52 H15        -0.4059   -6.1592    0.8993 H         1 <0>         0.0819
     53 H16        -0.5321   -4.5787   -0.9969 H         1 <0>         0.0748
     54 H17        -1.6485   -5.9421   -1.2459 H         1 <0>         0.0679
     55 H18        -2.4179   -3.2118   -0.1177 H         1 <0>         0.0817
     56 H19        -2.7307   -3.7658   -1.7807 H         1 <0>         0.0836
     57 H20        -4.1431   -5.5974   -0.9509 H         1 <0>         0.1079
     58 H21        -7.0645   -2.5324   -0.9339 H         1 <0>         0.0724
     59 H22        -8.8504   -4.7238    0.2138 H         1 <0>         0.0749
     60 H23        -9.4471   -3.2307   -0.5497 H         1 <0>         0.0811
     61 H24        -8.2609   -3.8275   -2.6438 H         1 <0>         0.0611
     62 H25        -7.6642   -5.3206   -1.8803 H         1 <0>         0.0669
     63 H26       -10.0000   -6.0806   -1.5411 H         1 <0>         0.0728
     64 H27       -10.5967   -4.5875   -2.3047 H         1 <0>         0.0722
     65 H28       -10.3225   -4.2167   -4.6904 H         1 <0>         0.1203
     66 H29       -10.0791   -5.2545   -6.9100 H         1 <0>         0.1212
     67 H30        -9.2515   -7.5654   -7.1046 H         1 <0>         0.1206
     68 H31        -8.6664   -8.8383   -5.0796 H         1 <0>         0.1209
     69 H32        -8.9019   -7.7976   -2.8604 H         1 <0>         0.1201
     70 H33        -8.4021   -1.8535    1.1020 H         1 <0>         0.0644
     71 H34        -7.6565   -3.2108    1.9795 H         1 <0>         0.0766
     72 H35        -5.3999   -2.2642    1.4650 H         1 <0>         0.0925
     73 H36        -6.1861   -0.8769    0.6740 H         1 <0>         0.0551
     74 H37        -7.3786   -0.3851    2.8297 H         1 <0>         0.0640
     75 H38        -6.4579   -1.6996    3.5995 H         1 <0>         0.0722
     76 H39        -4.0659   -1.4888    3.9712 H         1 <0>         0.1157
     77 H40        -2.1773    0.0483    4.3372 H         1 <0>         0.1178
     78 H41        -2.3397    2.3941    3.6065 H         1 <0>         0.1188
     79 H42        -4.3904    3.2026    2.5091 H         1 <0>         0.1195
     80 H43        -6.2757    1.6634    2.1356 H         1 <0>         0.1184
@<TRIPOS>BOND
     1    1    2 1
     2    1   38 1
     3    1   39 1
     4    1   40 1
     5    2    3 1
     6    2   41 1
     7    2   42 1
     8    3    4 1
     9    3    5 1
    10    3    6 1
    11    4   43 1
    12    4   44 1
    13    4   45 1
    14    5   46 1
    15    5   47 1
    16    5   48 1
    17    6    7 2
    18    6    8 1
    19    8    9 2
    20    8   10 am
    21   10   15 1
    22   10   11 1
    23   11   12 1
    24   11   49 1
    25   11   50 1
    26   12   13 1
    27   12   51 1
    28   12   52 1
    29   13   14 1
    30   13   53 1
    31   13   54 1
    32   14   15 1
    33   14   55 1
    34   14   56 1
    35   15   16 1
    36   15   57 1
    37   16   17 2
    38   16   18 1
    39   18   19 1
    40   19   20 1
    41   19   29 1
    42   19   58 1
    43   20   21 1
    44   20   59 1
    45   20   60 1
    46   21   22 1
    47   21   61 1
    48   21   62 1
    49   22   23 1
    50   22   63 1
    51   22   64 1
    52   23   28 ar
    53   23   24 ar
    54   24   25 ar
    55   24   65 1
    56   25   26 ar
    57   25   66 1
    58   26   27 ar
    59   26   67 1
    60   27   28 ar
    61   27   68 1
    62   28   69 1
    63   29   30 1
    64   29   70 1
    65   29   71 1
    66   30   31 1
    67   30   72 1
    68   30   73 1
    69   31   32 1
    70   31   74 1
    71   31   75 1
    72   32   37 ar
    73   32   33 ar
    74   33   34 ar
    75   33   76 1
    76   34   35 ar
    77   34   77 1
    78   35   36 ar
    79   35   78 1
    80   36   37 ar
    81   36   79 1
    82   37   80 1
@<TRIPOS>MOLECULE
CHEMBL298173__1
   80    82     0     0     0
SMALL
USER_CHARGES

@<TRIPOS>ATOM
      1 C1         -3.8482   -1.8696   -6.9267 C.3       1 <0>        -0.1551
      2 C2         -3.3217   -2.9538   -5.9843 C.3       1 <0>        -0.1077
      3 C3         -4.0196   -2.8336   -4.6281 C.3       1 <0>        -0.0866
      4 C4         -3.7353   -1.4549   -4.0287 C.3       1 <0>        -0.1450
      5 C5         -5.5283   -3.0078   -4.8136 C.3       1 <0>        -0.1424
      6 C6         -3.5010   -3.9015   -3.6998 C.2       1 <0>         0.3695
      7 O1         -2.6598   -4.6787   -4.0835 O.2       1 <0>        -0.4084
      8 C7         -4.0262   -3.9986   -2.3079 C.2       1 <0>         0.4726
      9 O2         -4.9732   -3.3199   -1.9679 O.2       1 <0>        -0.4727
     10 N1         -3.4495   -4.8401   -1.4272 N.am      1 <0>        -0.5781
     11 C8         -2.2122   -5.5530   -1.7730 C.3       1 <0>         0.0723
     12 C9         -1.1684   -5.2861   -0.6840 C.3       1 <0>        -0.1388
     13 C10        -1.7515   -5.6643    0.6795 C.3       1 <0>        -0.1191
     14 C11        -2.9817   -4.8006    0.9674 C.3       1 <0>        -0.1236
     15 C12        -4.0427   -5.0574   -0.1007 C.3       1 <0>         0.1493
     16 C13        -5.1967   -4.1087    0.0982 C.2       1 <0>         0.4775
     17 O3         -4.9915   -2.9236    0.2135 O.2       1 <0>        -0.4787
     18 O4         -6.4524   -4.5803    0.1471 O.3       1 <0>        -0.3456
     19 C14        -7.4974   -3.6245    0.3380 C.3       1 <0>         0.0960
     20 C15        -8.7743   -4.1222   -0.3423 C.3       1 <0>        -0.1155
     21 C16        -8.5548   -4.1854   -1.8552 C.3       1 <0>        -0.1076
     22 C17        -9.8317   -4.6831   -2.5354 C.3       1 <0>        -0.0819
     23 C18        -9.6155   -4.7452   -4.0255 C.ar      1 <0>        -0.0779
     24 C19        -9.8961   -3.6431   -4.8112 C.ar      1 <0>        -0.1168
     25 C20        -9.6978   -3.7001   -6.1781 C.ar      1 <0>        -0.1168
     26 C21        -9.2185   -4.8591   -6.7592 C.ar      1 <0>        -0.1254
     27 C22        -8.9369   -5.9610   -5.9734 C.ar      1 <0>        -0.1181
     28 C23        -9.1312   -5.9026   -4.6060 C.ar      1 <0>        -0.1179
     29 C24        -7.7549   -3.4425    1.8351 C.3       1 <0>        -0.1403
     30 C25        -6.5186   -2.8275    2.4942 C.3       1 <0>        -0.1077
     31 C26        -6.7761   -2.6455    3.9913 C.3       1 <0>        -0.0820
     32 C27        -5.5584   -2.0398    4.6404 C.ar      1 <0>        -0.0779
     33 C28        -4.5629   -2.8579    5.1411 C.ar      1 <0>        -0.1189
     34 C29        -3.4459   -2.3024    5.7365 C.ar      1 <0>        -0.1180
     35 C30        -3.3242   -0.9286    5.8309 C.ar      1 <0>        -0.1263
     36 C31        -4.3192   -0.1105    5.3295 C.ar      1 <0>        -0.1172
     37 C32        -5.4342   -0.6660    4.7302 C.ar      1 <0>        -0.1167
     38 H1         -3.3509   -1.9553   -7.8929 H         1 <0>         0.0581
     39 H2         -4.9230   -1.9938   -7.0589 H         1 <0>         0.0602
     40 H3         -3.6457   -0.8874   -6.4997 H         1 <0>         0.0596
     41 H4         -3.5242   -3.9361   -6.4113 H         1 <0>         0.0688
     42 H5         -2.2468   -2.8297   -5.8521 H         1 <0>         0.0683
     43 H6         -4.1104   -0.6825   -4.7001 H         1 <0>         0.0760
     44 H7         -4.2325   -1.3692   -3.0625 H         1 <0>         0.0763
     45 H8         -2.6605   -1.3307   -3.8965 H         1 <0>         0.0557
     46 H9         -5.7308   -3.9900   -5.2406 H         1 <0>         0.0547
     47 H10        -6.0255   -2.9222   -3.8474 H         1 <0>         0.0811
     48 H11        -5.9033   -2.2354   -5.4850 H         1 <0>         0.0731
     49 H12        -2.4117   -6.6229   -1.8336 H         1 <0>         0.0769
     50 H13        -1.8395   -5.1939   -2.7323 H         1 <0>         0.1347
     51 H14        -0.2788   -5.8853   -0.8780 H         1 <0>         0.0837
     52 H15        -0.9031   -4.2289   -0.6856 H         1 <0>         0.0689
     53 H16        -2.0395   -6.7155    0.6724 H         1 <0>         0.0698
     54 H17        -1.0022   -5.4984    1.4535 H         1 <0>         0.0760
     55 H18        -3.3827   -5.0542    1.9488 H         1 <0>         0.0829
     56 H19        -2.6993   -3.7480    0.9502 H         1 <0>         0.0837
     57 H20        -4.3948   -6.0859   -0.0218 H         1 <0>         0.1037
     58 H21        -7.2014   -2.6706   -0.0984 H         1 <0>         0.0880
     59 H22        -9.0210   -5.1162    0.0308 H         1 <0>         0.0732
     60 H23        -9.5936   -3.4379   -0.1223 H         1 <0>         0.0821
     61 H24        -8.3081   -3.1914   -2.2283 H         1 <0>         0.0646
     62 H25        -7.7355   -4.8697   -2.0752 H         1 <0>         0.0663
     63 H26       -10.0784   -5.6771   -2.1623 H         1 <0>         0.0713
     64 H27       -10.6510   -3.9987   -2.3154 H         1 <0>         0.0716
     65 H28       -10.2707   -2.7375   -4.3572 H         1 <0>         0.1195
     66 H29        -9.9178   -2.8392   -6.7920 H         1 <0>         0.1201
     67 H30        -9.0642   -4.9039   -7.8272 H         1 <0>         0.1194
     68 H31        -8.5627   -6.8667   -6.4274 H         1 <0>         0.1194
     69 H32        -8.9077   -6.7622   -3.9916 H         1 <0>         0.1184
     70 H33        -8.6099   -2.7818    1.9791 H         1 <0>         0.0795
     71 H34        -7.9641   -4.4115    2.2883 H         1 <0>         0.0715
     72 H35        -5.6636   -3.4882    2.3502 H         1 <0>         0.0575
     73 H36        -6.3094   -1.8585    2.0410 H         1 <0>         0.0720
     74 H37        -7.6310   -1.9849    4.1352 H         1 <0>         0.0716
     75 H38        -6.9853   -3.6145    4.4445 H         1 <0>         0.0702
     76 H39        -4.6581   -3.9312    5.0673 H         1 <0>         0.1181
     77 H40        -2.6686   -2.9416    6.1283 H         1 <0>         0.1203
     78 H41        -2.4518   -0.4946    6.2967 H         1 <0>         0.1201
     79 H42        -4.2242    0.9628    5.4035 H         1 <0>         0.1208
     80 H43        -6.2098   -0.0267    4.3351 H         1 <0>         0.1197
@<TRIPOS>BOND
     1    1    2 1
     2    1   38 1
     3    1   39 1
     4    1   40 1
     5    2    3 1
     6    2   41 1
     7    2   42 1
     8    3    4 1
     9    3    5 1
    10    3    6 1
    11    4   43 1
    12    4   44 1
    13    4   45 1
    14    5   46 1
    15    5   47 1
    16    5   48 1
    17    6    7 2
    18    6    8 1
    19    8    9 2
    20    8   10 am
    21   10   15 1
    22   10   11 1
    23   11   12 1
    24   11   49 1
    25   11   50 1
    26   12   13 1
    27   12   51 1
    28   12   52 1
    29   13   14 1
    30   13   53 1
    31   13   54 1
    32   14   15 1
    33   14   55 1
    34   14   56 1
    35   15   16 1
    36   15   57 1
    37   16   17 2
    38   16   18 1
    39   18   19 1
    40   19   20 1
    41   19   29 1
    42   19   58 1
    43   20   21 1
    44   20   59 1
    45   20   60 1
    46   21   22 1
    47   21   61 1
    48   21   62 1
    49   22   23 1
    50   22   63 1
    51   22   64 1
    52   23   28 ar
    53   23   24 ar
    54   24   25 ar
    55   24   65 1
    56   25   26 ar
    57   25   66 1
    58   26   27 ar
    59   26   67 1
    60   27   28 ar
    61   27   68 1
    62   28   69 1
    63   29   30 1
    64   29   70 1
    65   29   71 1
    66   30   31 1
    67   30   72 1
    68   30   73 1
    69   31   32 1
    70   31   74 1
    71   31   75 1
    72   32   37 ar
    73   32   33 ar
    74   33   34 ar
    75   33   76 1
    76   34   35 ar
    77   34   77 1
    78   35   36 ar
    79   35   78 1
    80   36   37 ar
    81   36   79 1
    82   37   80 1
@<TRIPOS>MOLECULE
CHEMBL356461
   61    62     0     0     0
SMALL
USER_CHARGES

@<TRIPOS>ATOM
      1 C1         -0.0187    1.5258    0.0104 C.3       1 <0>        -0.1556
      2 C2          0.0021   -0.0041    0.0020 C.3       1 <0>        -0.1075
      3 C3          0.7421   -0.5109    1.2415 C.3       1 <0>        -0.0878
      4 C4          2.1775    0.0187    1.2307 C.3       1 <0>        -0.1464
      5 C5          0.0259   -0.0175    2.5003 C.3       1 <0>        -0.1460
      6 C6          0.7625   -2.0177    1.2333 C.2       1 <0>         0.3686
      7 O1          0.2391   -2.6238    0.3291 O.2       1 <0>        -0.4129
      8 C7          1.4288   -2.7603    2.3411 C.2       1 <0>         0.4992
      9 O2          1.9547   -2.1513    3.2497 O.2       1 <0>        -0.4887
     10 N1          1.4470   -4.1079    2.3337 N.am      1 <0>        -0.5868
     11 C8          0.8554   -4.9695    1.2940 C.3       1 <0>         0.0927
     12 C9          1.6419   -6.3009    1.3875 C.3       1 <0>        -0.1345
     13 C10         1.8600   -6.4270    2.9184 C.3       1 <0>        -0.1189
     14 C11         2.0658   -4.9621    3.3579 C.3       1 <0>         0.1446
     15 C12         1.3990   -4.7308    4.6894 C.2       1 <0>         0.4541
     16 O3          0.4959   -3.9335    4.7824 O.2       1 <0>        -0.4866
     17 O4          1.8083   -5.4105    5.7721 O.3       1 <0>        -0.3449
     18 C13         1.1313   -5.1411    7.0014 C.3       1 <0>         0.1003
     19 C14         1.7225   -5.9904    8.0970 C.2       1 <0>        -0.1549
     20 C15         1.9976   -5.4526    9.2776 C.2       1 <0>        -0.0796
     21 C16         2.5772   -6.2851   10.3516 C.ar      1 <0>        -0.0511
     22 C17         2.8416   -7.6360   10.1253 C.ar      1 <0>        -0.1063
     23 C18         3.3846   -8.4104   11.1356 C.ar      1 <0>         0.0947
     24 C19         3.6661   -7.8456   12.3724 C.ar      1 <0>        -0.1633
     25 C20         3.4063   -6.5083   12.6033 C.ar      1 <0>        -0.1680
     26 C21         2.8687   -5.7206   11.5986 C.ar      1 <0>         0.1078
     27 O5          2.6197   -4.4039   11.8251 O.3       1 <0>        -0.3123
     28 C22         2.9424   -3.8962   13.1214 C.3       1 <0>         0.0261
     29 O6          3.6425   -9.7275   10.9168 O.3       1 <0>        -0.3168
     30 C23         4.2029  -10.4680   12.0029 C.3       1 <0>         0.0269
     31 H1          1.0039    1.9031    0.0027 H         1 <0>         0.0600
     32 H2         -0.5459    1.8868   -0.8726 H         1 <0>         0.0581
     33 H3         -0.5289    1.8773    0.9072 H         1 <0>         0.0601
     34 H4         -1.0205   -0.3814    0.0098 H         1 <0>         0.0688
     35 H5          0.5123   -0.3556   -0.8948 H         1 <0>         0.0688
     36 H6          2.1627    1.1086    1.2367 H         1 <0>         0.0757
     37 H7          2.7046   -0.3424    2.1137 H         1 <0>         0.0778
     38 H8          2.6876   -0.3328    0.3339 H         1 <0>         0.0564
     39 H9         -0.9967   -0.3948    2.5081 H         1 <0>         0.0561
     40 H10         0.5531   -0.3786    3.3834 H         1 <0>         0.0789
     41 H11         0.0111    1.0724    2.5063 H         1 <0>         0.0748
     42 H12        -0.2019   -5.1384    1.4977 H         1 <0>         0.0766
     43 H13         0.9859   -4.5202    0.3095 H         1 <0>         0.1032
     44 H14         1.0486   -7.1326    1.0075 H         1 <0>         0.0957
     45 H15         2.5941   -6.2299    0.8617 H         1 <0>         0.0852
     46 H16         0.9816   -6.8578    3.3989 H         1 <0>         0.0856
     47 H17         2.7487   -7.0203    3.1338 H         1 <0>         0.1035
     48 H18         3.1307   -4.7412    3.4310 H         1 <0>         0.1212
     49 H19         1.2464   -4.0876    7.2563 H         1 <0>         0.0760
     50 H20         0.0724   -5.3749    6.8919 H         1 <0>         0.0801
     51 H21         1.9222   -7.0370    7.9207 H         1 <0>         0.1272
     52 H22         1.7980   -4.4059    9.4538 H         1 <0>         0.1292
     53 H23         2.6228   -8.0767    9.1639 H         1 <0>         0.1424
     54 H24         4.0898   -8.4543   13.1575 H         1 <0>         0.1328
     55 H25         3.6272   -6.0751   13.5676 H         1 <0>         0.1342
     56 H26         2.3705   -4.4365   13.8759 H         1 <0>         0.0558
     57 H27         4.0079   -4.0292   13.3088 H         1 <0>         0.0560
     58 H28         2.6948   -2.8357   13.1682 H         1 <0>         0.1023
     59 H29         5.1573  -10.0264   12.2896 H         1 <0>         0.0552
     60 H30         3.5201  -10.4405   12.8521 H         1 <0>         0.0550
     61 H31         4.3588  -11.5021   11.6954 H         1 <0>         0.1015
@<TRIPOS>BOND
     1    1    2 1
     2    1   31 1
     3    1   32 1
     4    1   33 1
     5    2    3 1
     6    2   34 1
     7    2   35 1
     8    3    4 1
     9    3    5 1
    10    3    6 1
    11    4   36 1
    12    4   37 1
    13    4   38 1
    14    5   39 1
    15    5   40 1
    16    5   41 1
    17    6    7 2
    18    6    8 1
    19    8    9 2
    20    8   10 am
    21   10   14 1
    22   10   11 1
    23   11   12 1
    24   11   42 1
    25   11   43 1
    26   12   13 1
    27   12   44 1
    28   12   45 1
    29   13   14 1
    30   13   46 1
    31   13   47 1
    32   14   15 1
    33   14   48 1
    34   15   16 2
    35   15   17 1
    36   17   18 1
    37   18   19 1
    38   18   49 1
    39   18   50 1
    40   19   20 2
    41   19   51 1
    42   20   21 1
    43   20   52 1
    44   21   26 ar
    45   21   22 ar
    46   22   23 ar
    47   22   53 1
    48   23   24 ar
    49   23   29 1
    50   24   25 ar
    51   24   54 1
    52   25   26 ar
    53   25   55 1
    54   26   27 1
    55   27   28 1
    56   28   56 1
    57   28   57 1
    58   28   58 1
    59   29   30 1
    60   30   59 1
    61   30   60 1
    62   30   61 1
@<TRIPOS>MOLECULE
CHEMBL356461__1
   61    62     0     0     0
SMALL
USER_CHARGES

@<TRIPOS>ATOM
      1 C1         -0.0187    1.5258    0.0104 C.3       1 <0>        -0.1556
      2 C2          0.0021   -0.0041    0.0020 C.3       1 <0>        -0.1076
      3 C3          0.7421   -0.5109    1.2415 C.3       1 <0>        -0.0878
      4 C4          2.1775    0.0187    1.2307 C.3       1 <0>        -0.1459
      5 C5          0.0259   -0.0175    2.5003 C.3       1 <0>        -0.1464
      6 C6          0.7625   -2.0177    1.2333 C.2       1 <0>         0.3687
      7 O1          0.2391   -2.6238    0.3291 O.2       1 <0>        -0.4130
      8 C7          1.4288   -2.7603    2.3411 C.2       1 <0>         0.4992
      9 O2          1.9547   -2.1513    3.2497 O.2       1 <0>        -0.4888
     10 N1          1.4470   -4.1079    2.3337 N.am      1 <0>        -0.5865
     11 C8          0.8554   -4.9695    1.2940 C.3       1 <0>         0.0922
     12 C9          0.5845   -6.3192    2.0043 C.3       1 <0>        -0.1342
     13 C10         1.8129   -6.4278    2.9459 C.3       1 <0>        -0.1188
     14 C11         2.0658   -4.9621    3.3579 C.3       1 <0>         0.1443
     15 C12         3.5473   -4.6934    3.4227 C.2       1 <0>         0.4543
     16 O3          4.0448   -3.8718    2.6898 O.2       1 <0>        -0.4865
     17 O4          4.3140   -5.3669    4.2947 O.3       1 <0>        -0.3449
     18 C13         5.7100   -5.0614    4.3018 C.3       1 <0>         0.1002
     19 C14         6.4043   -5.9089    5.3365 C.2       1 <0>        -0.1537
     20 C15         7.5478   -6.5120    5.0409 C.2       1 <0>        -0.0807
     21 C16         8.2286   -7.3427    6.0553 C.ar      1 <0>        -0.0508
     22 C17         7.6683   -7.4995    7.3232 C.ar      1 <0>        -0.1065
     23 C18         8.3110   -8.2791    8.2689 C.ar      1 <0>         0.0952
     24 C19         9.5111   -8.9045    7.9581 C.ar      1 <0>        -0.1635
     25 C20        10.0718   -8.7530    6.7043 C.ar      1 <0>        -0.1679
     26 C21         9.4355   -7.9805    5.7466 C.ar      1 <0>         0.1072
     27 O5          9.9849   -7.8377    4.5117 O.3       1 <0>        -0.3126
     28 C22        11.2179   -8.5175    4.2676 C.3       1 <0>         0.0261
     29 O6          7.7664   -8.4326    9.5054 O.3       1 <0>        -0.3166
     30 C23         8.4824   -9.2506   10.4328 C.3       1 <0>         0.0270
     31 H1          1.0039    1.9031    0.0027 H         1 <0>         0.0601
     32 H2         -0.5459    1.8868   -0.8726 H         1 <0>         0.0581
     33 H3         -0.5289    1.8773    0.9072 H         1 <0>         0.0600
     34 H4         -1.0205   -0.3814    0.0098 H         1 <0>         0.0688
     35 H5          0.5123   -0.3556   -0.8948 H         1 <0>         0.0687
     36 H6          2.1627    1.1086    1.2367 H         1 <0>         0.0749
     37 H7          2.7046   -0.3424    2.1137 H         1 <0>         0.0789
     38 H8          2.6876   -0.3328    0.3339 H         1 <0>         0.0561
     39 H9         -0.9967   -0.3948    2.5081 H         1 <0>         0.0564
     40 H10         0.5531   -0.3786    3.3834 H         1 <0>         0.0779
     41 H11         0.0111    1.0724    2.5063 H         1 <0>         0.0757
     42 H12        -0.0772   -4.5387    0.9297 H         1 <0>         0.1039
     43 H13         1.5572   -5.1079    0.4715 H         1 <0>         0.0763
     44 H14        -0.3432   -6.2809    2.5753 H         1 <0>         0.0853
     45 H15         0.5672   -7.1410    1.2884 H         1 <0>         0.0956
     46 H16         1.5787   -7.0406    3.8163 H         1 <0>         0.1037
     47 H17         2.6743   -6.8284    2.4114 H         1 <0>         0.0848
     48 H18         1.6089   -4.7677    4.3283 H         1 <0>         0.1212
     49 H19         6.1324   -5.2695    3.3187 H         1 <0>         0.0747
     50 H20         5.8500   -4.0075    4.5418 H         1 <0>         0.0816
     51 H21         5.9707   -6.0251    6.3188 H         1 <0>         0.1274
     52 H22         7.9815   -6.3957    4.0586 H         1 <0>         0.1289
     53 H23         6.7350   -7.0133    7.5663 H         1 <0>         0.1426
     54 H24        10.0086   -9.5118    8.6997 H         1 <0>         0.1328
     55 H25        11.0056   -9.2419    6.4690 H         1 <0>         0.1341
     56 H26        11.9739   -8.1614    4.9675 H         1 <0>         0.0559
     57 H27        11.0745   -9.5897    4.4022 H         1 <0>         0.0559
     58 H28        11.5458   -8.3201    3.2470 H         1 <0>         0.1021
     59 H29         8.5799  -10.2582   10.0286 H         1 <0>         0.0551
     60 H30         9.4735   -8.8286   10.5996 H         1 <0>         0.0551
     61 H31         7.9401   -9.2890   11.3775 H         1 <0>         0.1016
@<TRIPOS>BOND
     1    1    2 1
     2    1   31 1
     3    1   32 1
     4    1   33 1
     5    2    3 1
     6    2   34 1
     7    2   35 1
     8    3    4 1
     9    3    5 1
    10    3    6 1
    11    4   36 1
    12    4   37 1
    13    4   38 1
    14    5   39 1
    15    5   40 1
    16    5   41 1
    17    6    7 2
    18    6    8 1
    19    8    9 2
    20    8   10 am
    21   10   14 1
    22   10   11 1
    23   11   12 1
    24   11   42 1
    25   11   43 1
    26   12   13 1
    27   12   44 1
    28   12   45 1
    29   13   14 1
    30   13   46 1
    31   13   47 1
    32   14   15 1
    33   14   48 1
    34   15   16 2
    35   15   17 1
    36   17   18 1
    37   18   19 1
    38   18   49 1
    39   18   50 1
    40   19   20 2
    41   19   51 1
    42   20   21 1
    43   20   52 1
    44   21   26 ar
    45   21   22 ar
    46   22   23 ar
    47   22   53 1
    48   23   24 ar
    49   23   29 1
    50   24   25 ar
    51   24   54 1
    52   25   26 ar
    53   25   55 1
    54   26   27 1
    55   27   28 1
    56   28   56 1
    57   28   57 1
    58   28   58 1
    59   29   30 1
    60   30   59 1
    61   30   60 1
    62   30   61 1
@<TRIPOS>MOLECULE
CHEMBL149373
   56    58     0     0     0
SMALL
USER_CHARGES

@<TRIPOS>ATOM
      1 C1         -0.0167    1.3781    0.0096 C.ar      1 <0>        -0.1231
      2 C2          1.1709    2.0855    0.0021 C.ar      1 <0>        -0.1181
      3 C3          2.3773    1.4107   -0.0130 C.ar      1 <0>        -0.1165
      4 C4          2.3960    0.0285   -0.0201 C.ar      1 <0>        -0.0832
      5 C5          1.2084   -0.6789   -0.0117 C.ar      1 <0>        -0.1162
      6 C6          0.0021   -0.0041    0.0020 C.ar      1 <0>        -0.1177
      7 C7          3.7112   -0.7071   -0.0376 C.3       1 <0>        -0.0784
      8 C8          4.1714   -0.9633    1.3989 C.3       1 <0>        -0.1115
      9 C9          5.5066   -1.7102    1.3812 C.3       1 <0>         0.0656
     10 O1          5.9364   -1.9494    2.7229 O.3       1 <0>        -0.3487
     11 C10         7.0995   -2.5999    2.8833 C.2       1 <0>         0.4535
     12 O2          7.7318   -2.9544    1.9166 O.2       1 <0>        -0.4874
     13 C11         7.6168   -2.8880    4.2691 C.3       1 <0>         0.1439
     14 C12         7.8803   -1.5640    5.0168 C.3       1 <0>        -0.1185
     15 C13         9.1794   -1.8653    5.8098 C.3       1 <0>        -0.1345
     16 C14         9.9427   -2.7806    4.8201 C.3       1 <0>         0.0928
     17 N1          8.8978   -3.6046    4.1857 N.am      1 <0>        -0.5865
     18 C15         9.0857   -4.8148    3.6229 C.2       1 <0>         0.4969
     19 O3          8.1484   -5.4060    3.1280 O.2       1 <0>        -0.4928
     20 C16        10.4449   -5.4271    3.6081 C.2       1 <0>         0.3655
     21 O4         11.3777   -4.8387    4.1006 O.2       1 <0>        -0.4118
     22 C17        10.6550   -6.7802    2.9788 C.3       1 <0>        -0.1171
     23 C18        10.3340   -7.8731    4.0002 C.3       1 <0>        -0.1052
     24 C19        10.5473   -9.2469    3.3613 C.3       1 <0>        -0.1166
     25 C20        12.0040   -9.3800    2.9127 C.3       1 <0>        -0.1230
     26 C21        12.3250   -8.2871    1.8912 C.3       1 <0>        -0.1189
     27 C22        12.1117   -6.9134    2.5302 C.3       1 <0>        -0.1083
     28 H1         -0.9591    1.9053    0.0259 H         1 <0>         0.1217
     29 H2          1.1563    3.1654    0.0076 H         1 <0>         0.1224
     30 H3          3.3051    1.9634   -0.0196 H         1 <0>         0.1215
     31 H4          1.2231   -1.7588   -0.0176 H         1 <0>         0.1218
     32 H5         -0.9258   -0.5567    0.0082 H         1 <0>         0.1225
     33 H6          3.5884   -1.6586   -0.5549 H         1 <0>         0.0771
     34 H7          4.4573   -0.1052   -0.5563 H         1 <0>         0.0767
     35 H8          4.2941   -0.0118    1.9163 H         1 <0>         0.0770
     36 H9          3.4252   -1.5652    1.9176 H         1 <0>         0.0774
     37 H10         5.3838   -2.6617    0.8639 H         1 <0>         0.0697
     38 H11         6.2527   -1.1082    0.8625 H         1 <0>         0.0683
     39 H12         6.8912   -3.4883    4.8181 H         1 <0>         0.1207
     40 H13         8.0394   -0.7480    4.3118 H         1 <0>         0.0849
     41 H14         7.0588   -1.3341    5.6953 H         1 <0>         0.1034
     42 H15         9.7383   -0.9504    6.0063 H         1 <0>         0.0959
     43 H16         8.9574   -2.3925    6.7376 H         1 <0>         0.0855
     44 H17        10.4600   -2.1812    4.0710 H         1 <0>         0.0766
     45 H18        10.6505   -3.4124    5.3566 H         1 <0>         0.1041
     46 H19         9.9979   -6.8853    2.1155 H         1 <0>         0.1097
     47 H20        10.9911   -7.7680    4.8635 H         1 <0>         0.0683
     48 H21         9.2962   -7.7782    4.3198 H         1 <0>         0.0720
     49 H22        10.3186  -10.0255    4.0890 H         1 <0>         0.0688
     50 H23         9.8902   -9.3520    2.4980 H         1 <0>         0.0674
     51 H24        12.6611   -9.2749    3.7759 H         1 <0>         0.0636
     52 H25        12.1559  -10.3587    2.4575 H         1 <0>         0.0653
     53 H26        13.3627   -8.3820    1.5716 H         1 <0>         0.0680
     54 H27        11.6679   -8.3923    1.0279 H         1 <0>         0.0651
     55 H28        12.3404   -6.1347    1.8025 H         1 <0>         0.0661
     56 H29        12.7688   -6.8082    3.3934 H         1 <0>         0.0746
@<TRIPOS>BOND
     1    1    6 ar
     2    1    2 ar
     3    1   28 1
     4    2    3 ar
     5    2   29 1
     6    3    4 ar
     7    3   30 1
     8    4    5 ar
     9    4    7 1
    10    5    6 ar
    11    5   31 1
    12    6   32 1
    13    7    8 1
    14    7   33 1
    15    7   34 1
    16    8    9 1
    17    8   35 1
    18    8   36 1
    19    9   10 1
    20    9   37 1
    21    9   38 1
    22   10   11 1
    23   11   12 2
    24   11   13 1
    25   13   17 1
    26   13   14 1
    27   13   39 1
    28   14   15 1
    29   14   40 1
    30   14   41 1
    31   15   16 1
    32   15   42 1
    33   15   43 1
    34   16   17 1
    35   16   44 1
    36   16   45 1
    37   17   18 am
    38   18   19 2
    39   18   20 1
    40   20   21 2
    41   20   22 1
    42   22   27 1
    43   22   23 1
    44   22   46 1
    45   23   24 1
    46   23   47 1
    47   23   48 1
    48   24   25 1
    49   24   49 1
    50   24   50 1
    51   25   26 1
    52   25   51 1
    53   25   52 1
    54   26   27 1
    55   26   53 1
    56   26   54 1
    57   27   55 1
    58   27   56 1
@<TRIPOS>MOLECULE
CHEMBL149373__1
   56    58     0     0     0
SMALL
USER_CHARGES

@<TRIPOS>ATOM
      1 C1         -0.0167    1.3781    0.0096 C.ar      1 <0>        -0.1231
      2 C2          1.1709    2.0855    0.0021 C.ar      1 <0>        -0.1178
      3 C3          2.3773    1.4107   -0.0130 C.ar      1 <0>        -0.1162
      4 C4          2.3960    0.0285   -0.0201 C.ar      1 <0>        -0.0832
      5 C5          1.2084   -0.6789   -0.0117 C.ar      1 <0>        -0.1165
      6 C6          0.0021   -0.0041    0.0020 C.ar      1 <0>        -0.1180
      7 C7          3.7112   -0.7071   -0.0376 C.3       1 <0>        -0.0784
      8 C8          4.1714   -0.9633    1.3989 C.3       1 <0>        -0.1116
      9 C9          5.5066   -1.7102    1.3812 C.3       1 <0>         0.0657
     10 O1          5.9364   -1.9494    2.7229 O.3       1 <0>        -0.3488
     11 C10         7.0995   -2.5999    2.8833 C.2       1 <0>         0.4536
     12 O2          7.7318   -2.9544    1.9166 O.2       1 <0>        -0.4871
     13 C11         7.6168   -2.8880    4.2691 C.3       1 <0>         0.1438
     14 C12         6.6270   -3.8045    5.0187 C.3       1 <0>        -0.1185
     15 C13         7.5643   -4.7528    5.8123 C.3       1 <0>        -0.1345
     16 C14         8.7429   -4.9254    4.8220 C.3       1 <0>         0.0928
     17 N1          8.8978   -3.6046    4.1857 N.am      1 <0>        -0.5864
     18 C15        10.0266   -3.1325    3.6207 C.2       1 <0>         0.4968
     19 O3         10.0393   -2.0253    3.1237 O.2       1 <0>        -0.4928
     20 C16        11.2598   -3.9702    3.6062 C.2       1 <0>         0.3653
     21 O4         11.2472   -5.0720    4.1009 O.2       1 <0>        -0.4119
     22 C17        12.5220   -3.4423    2.9745 C.3       1 <0>        -0.1163
     23 C18        12.4934   -3.7185    1.4699 C.3       1 <0>        -0.1059
     24 C19        13.7749   -3.1825    0.8285 C.3       1 <0>        -0.1161
     25 C20        14.9867   -3.8781    1.4518 C.3       1 <0>        -0.1232
     26 C21        15.0153   -3.6019    2.9563 C.3       1 <0>        -0.1185
     27 C22        13.7339   -4.1379    3.5978 C.3       1 <0>        -0.1082
     28 H1         -0.9591    1.9053    0.0259 H         1 <0>         0.1217
     29 H2          1.1563    3.1654    0.0076 H         1 <0>         0.1225
     30 H3          3.3051    1.9634   -0.0196 H         1 <0>         0.1218
     31 H4          1.2231   -1.7588   -0.0176 H         1 <0>         0.1215
     32 H5         -0.9258   -0.5567    0.0082 H         1 <0>         0.1223
     33 H6          3.5884   -1.6586   -0.5549 H         1 <0>         0.0767
     34 H7          4.4573   -0.1052   -0.5563 H         1 <0>         0.0771
     35 H8          4.2941   -0.0118    1.9163 H         1 <0>         0.0773
     36 H9          3.4252   -1.5652    1.9176 H         1 <0>         0.0770
     37 H10         5.3838   -2.6617    0.8639 H         1 <0>         0.0683
     38 H11         6.2527   -1.1082    0.8625 H         1 <0>         0.0696
     39 H12         7.7490   -1.9549    4.8167 H         1 <0>         0.1206
     40 H13         6.0017   -3.2239    5.6970 H         1 <0>         0.1034
     41 H14         6.0145   -4.3680    4.3149 H         1 <0>         0.0848
     42 H15         7.8980   -4.2864    6.7393 H         1 <0>         0.0855
     43 H16         7.0773   -5.7076    6.0104 H         1 <0>         0.0959
     44 H17         9.6522   -5.1972    5.3582 H         1 <0>         0.1042
     45 H18         8.5024   -5.6810    4.0741 H         1 <0>         0.0766
     46 H19        12.5920   -2.3680    3.1454 H         1 <0>         0.1092
     47 H20        12.4234   -4.7927    1.2990 H         1 <0>         0.0676
     48 H21        11.6301   -3.2229    1.0259 H         1 <0>         0.0734
     49 H22        13.7545   -3.3793   -0.2434 H         1 <0>         0.0685
     50 H23        13.8449   -2.1083    0.9994 H         1 <0>         0.0672
     51 H24        14.9167   -4.9524    1.2809 H         1 <0>         0.0635
     52 H25        15.8997   -3.4963    0.9948 H         1 <0>         0.0652
     53 H26        15.8787   -4.0974    3.4004 H         1 <0>         0.0679
     54 H27        15.0854   -2.5276    3.1273 H         1 <0>         0.0651
     55 H28        13.7543   -3.9411    4.6696 H         1 <0>         0.0662
     56 H29        13.6638   -5.2121    3.4268 H         1 <0>         0.0745
@<TRIPOS>BOND
     1    1    6 ar
     2    1    2 ar
     3    1   28 1
     4    2    3 ar
     5    2   29 1
     6    3    4 ar
     7    3   30 1
     8    4    5 ar
     9    4    7 1
    10    5    6 ar
    11    5   31 1
    12    6   32 1
    13    7    8 1
    14    7   33 1
    15    7   34 1
    16    8    9 1
    17    8   35 1
    18    8   36 1
    19    9   10 1
    20    9   37 1
    21    9   38 1
    22   10   11 1
    23   11   12 2
    24   11   13 1
    25   13   17 1
    26   13   14 1
    27   13   39 1
    28   14   15 1
    29   14   40 1
    30   14   41 1
    31   15   16 1
    32   15   42 1
    33   15   43 1
    34   16   17 1
    35   16   44 1
    36   16   45 1
    37   17   18 am
    38   18   19 2
    39   18   20 1
    40   20   21 2
    41   20   22 1
    42   22   27 1
    43   22   23 1
    44   22   46 1
    45   23   24 1
    46   23   47 1
    47   23   48 1
    48   24   25 1
    49   24   49 1
    50   24   50 1
    51   25   26 1
    52   25   51 1
    53   25   52 1
    54   26   27 1
    55   26   53 1
    56   26   54 1
    57   27   55 1
    58   27   56 1
@<TRIPOS>MOLECULE
CHEMBL52541
   65    66     0     0     0
SMALL
USER_CHARGES

@<TRIPOS>ATOM
      1 C1         -0.0246    1.5286   -0.1633 C.3       1 <0>        -0.1558
      2 C2         -0.0013   -0.0010   -0.1363 C.3       1 <0>        -0.1085
      3 C3         -1.4352   -0.5321   -0.0849 C.3       1 <0>        -0.0870
      4 C4         -2.1274   -0.0103    1.1758 C.3       1 <0>        -0.1470
      5 C5         -2.2003   -0.0555   -1.3212 C.3       1 <0>        -0.1459
      6 C6         -1.4122   -2.0387   -0.0583 C.2       1 <0>         0.3755
      7 O1         -0.3575   -2.6270   -0.0784 O.2       1 <0>        -0.4044
      8 C7         -2.6912   -2.8030   -0.0072 C.2       1 <0>         0.4748
      9 O2         -3.7446   -2.2149    0.1250 O.2       1 <0>        -0.4794
     10 N1         -2.6777   -4.1469   -0.1078 N.am      1 <0>        -0.5769
     11 C8         -1.4066   -4.8838   -0.1214 C.3       1 <0>         0.0472
     12 C9         -1.3727   -5.7857   -1.3592 C.3       1 <0>        -0.1357
     13 C10        -2.6164   -6.6775   -1.3699 C.3       1 <0>        -0.1202
     14 C11        -3.8714   -5.8047   -1.4424 C.3       1 <0>        -0.1232
     15 C12        -3.9338   -4.9034   -0.1998 C.3       1 <0>         0.1477
     16 C13        -5.0916   -3.9469   -0.3248 C.2       1 <0>         0.4797
     17 O3         -5.1877   -3.2386   -1.2990 O.2       1 <0>        -0.4938
     18 O4         -6.0161   -3.8817    0.6462 O.3       1 <0>        -0.3514
     19 C14        -7.0862   -2.9527    0.4618 C.3       1 <0>         0.0725
     20 C15        -8.0328   -3.0204    1.6619 C.3       1 <0>        -0.1182
     21 C16        -9.1785   -2.0258    1.4645 C.3       1 <0>        -0.1110
     22 C17       -10.1251   -2.0934    2.6646 C.3       1 <0>        -0.0740
     23 C18       -11.2535   -1.1137    2.4702 C.ar      1 <0>        -0.1202
     24 C19       -11.1274    0.1843    2.9294 C.ar      1 <0>        -0.0766
     25 C20       -12.1605    1.0842    2.7528 C.ar      1 <0>        -0.1496
     26 C21       -13.3253    0.6846    2.1137 C.ar      1 <0>         0.1224
     27 C22       -13.4492   -0.6183    1.6535 C.ar      1 <0>        -0.2061
     28 C23       -12.4111   -1.5129    1.8280 C.ar      1 <0>        -0.0767
     29 O5        -14.3432    1.5678    1.9392 O.3       1 <0>        -0.3186
     30 C24       -15.5123    1.0869    1.2728 C.3       1 <0>         0.0269
     31 H1          0.9969    1.9070   -0.1999 H         1 <0>         0.0589
     32 H2         -0.5697    1.8682   -1.0440 H         1 <0>         0.0602
     33 H3         -0.5178    1.9004    0.7349 H         1 <0>         0.0603
     34 H4          0.4919   -0.3727   -1.0345 H         1 <0>         0.0696
     35 H5          0.5438   -0.3405    0.7444 H         1 <0>         0.0698
     36 H6         -2.1441    1.0794    1.1566 H         1 <0>         0.0761
     37 H7         -3.1490   -0.3887    1.2125 H         1 <0>         0.0805
     38 H8         -1.5824   -0.3499    2.0566 H         1 <0>         0.0566
     39 H9         -1.7071   -0.4272   -2.2193 H         1 <0>         0.0567
     40 H10        -3.2218   -0.4339   -1.2845 H         1 <0>         0.0779
     41 H11        -2.2169    1.0342   -1.3404 H         1 <0>         0.0767
     42 H12        -0.5760   -4.1790   -0.1599 H         1 <0>         0.1557
     43 H13        -1.3288   -5.4946    0.7780 H         1 <0>         0.0744
     44 H14        -1.3593   -5.1694   -2.2581 H         1 <0>         0.0684
     45 H15        -0.4787   -6.4086   -1.3311 H         1 <0>         0.0832
     46 H16        -2.5825   -7.3375   -2.2366 H         1 <0>         0.0763
     47 H17        -2.6422   -7.2756   -0.4590 H         1 <0>         0.0703
     48 H18        -3.8345   -5.1882   -2.3405 H         1 <0>         0.0826
     49 H19        -4.7558   -6.4411   -1.4735 H         1 <0>         0.0846
     50 H20        -4.0578   -5.5158    0.6933 H         1 <0>         0.1079
     51 H21        -6.6811   -1.9445    0.3749 H         1 <0>         0.0712
     52 H22        -7.6331   -3.2041   -0.4469 H         1 <0>         0.0632
     53 H23        -8.4378   -4.0286    1.7488 H         1 <0>         0.0732
     54 H24        -7.4859   -2.7690    2.5707 H         1 <0>         0.0745
     55 H25        -8.7734   -1.0175    1.3777 H         1 <0>         0.0682
     56 H26        -9.7254   -2.2771    0.5558 H         1 <0>         0.0666
     57 H27       -10.5301   -3.1016    2.7515 H         1 <0>         0.0728
     58 H28        -9.5782   -1.8420    3.5734 H         1 <0>         0.0739
     59 H29       -10.2204    0.4949    3.4268 H         1 <0>         0.1291
     60 H30       -12.0618    2.0978    3.1122 H         1 <0>         0.1305
     61 H31       -14.3549   -0.9318    1.1558 H         1 <0>         0.1275
     62 H32       -12.5054   -2.5261    1.4660 H         1 <0>         0.1241
     63 H33       -15.2459    0.7457    0.2725 H         1 <0>         0.0556
     64 H34       -15.9377    0.2578    1.8383 H         1 <0>         0.0556
     65 H35       -16.2452    1.8905    1.1995 H         1 <0>         0.1009
@<TRIPOS>BOND
     1    1    2 1
     2    1   31 1
     3    1   32 1
     4    1   33 1
     5    2    3 1
     6    2   34 1
     7    2   35 1
     8    3    4 1
     9    3    5 1
    10    3    6 1
    11    4   36 1
    12    4   37 1
    13    4   38 1
    14    5   39 1
    15    5   40 1
    16    5   41 1
    17    6    7 2
    18    6    8 1
    19    8    9 2
    20    8   10 am
    21   10   15 1
    22   10   11 1
    23   11   12 1
    24   11   42 1
    25   11   43 1
    26   12   13 1
    27   12   44 1
    28   12   45 1
    29   13   14 1
    30   13   46 1
    31   13   47 1
    32   14   15 1
    33   14   48 1
    34   14   49 1
    35   15   16 1
    36   15   50 1
    37   16   17 2
    38   16   18 1
    39   18   19 1
    40   19   20 1
    41   19   51 1
    42   19   52 1
    43   20   21 1
    44   20   53 1
    45   20   54 1
    46   21   22 1
    47   21   55 1
    48   21   56 1
    49   22   23 1
    50   22   57 1
    51   22   58 1
    52   23   28 ar
    53   23   24 ar
    54   24   25 ar
    55   24   59 1
    56   25   26 ar
    57   25   60 1
    58   26   27 ar
    59   26   29 1
    60   27   28 ar
    61   27   61 1
    62   28   62 1
    63   29   30 1
    64   30   63 1
    65   30   64 1
    66   30   65 1
@<TRIPOS>MOLECULE
CHEMBL52541__1
   65    66     0     0     0
SMALL
USER_CHARGES

@<TRIPOS>ATOM
      1 C1         -0.2216    1.5569   -1.3303 C.3       1 <0>        -0.1558
      2 C2         -0.2033    0.0272   -1.3546 C.3       1 <0>        -0.1081
      3 C3         -1.5712   -0.5061   -0.9240 C.3       1 <0>        -0.0876
      4 C4         -1.8841   -0.0222    0.4933 C.3       1 <0>        -0.1458
      5 C5         -2.6444    0.0064   -1.8865 C.3       1 <0>        -0.1471
      6 C6         -1.5531   -2.0128   -0.9479 C.2       1 <0>         0.3701
      7 O1         -0.5496   -2.5996   -1.2756 O.2       1 <0>        -0.4066
      8 C7         -2.7740   -2.7790   -0.5671 C.2       1 <0>         0.4725
      9 O2         -3.8227   -2.1968   -0.3821 O.2       1 <0>        -0.4772
     10 N1         -2.7132   -4.1183   -0.4284 N.am      1 <0>        -0.5785
     11 C8         -1.4242   -4.8201   -0.4967 C.3       1 <0>         0.0723
     12 C9         -1.2640   -5.6806    0.7606 C.3       1 <0>        -0.1394
     13 C10        -2.4762   -6.6045    0.8994 C.3       1 <0>        -0.1194
     14 C11        -3.7462   -5.7636    1.0481 C.3       1 <0>        -0.1253
     15 C12        -3.9338   -4.9034   -0.1998 C.3       1 <0>         0.1501
     16 C13        -5.1025   -3.9734    0.0012 C.2       1 <0>         0.4765
     17 O3         -5.1694   -3.2941    0.9981 O.2       1 <0>        -0.4857
     18 O4         -6.0690   -3.8998   -0.9273 O.3       1 <0>        -0.3541
     19 C14        -7.1470   -2.9973   -0.6715 C.3       1 <0>         0.0723
     20 C15        -8.1431   -3.0506   -1.8317 C.3       1 <0>        -0.1183
     21 C16        -9.2972   -2.0842   -1.5578 C.3       1 <0>        -0.1110
     22 C17       -10.2932   -2.1376   -2.7179 C.3       1 <0>        -0.0739
     23 C18       -11.4300   -1.1857   -2.4481 C.ar      1 <0>        -0.1203
     24 C19       -12.5489   -1.6233   -1.7637 C.ar      1 <0>        -0.0769
     25 C20       -13.5925   -0.7529   -1.5155 C.ar      1 <0>        -0.1497
     26 C21       -13.5171    0.5614   -1.9533 C.ar      1 <0>         0.1225
     27 C22       -12.3932    0.9981   -2.6394 C.ar      1 <0>        -0.2060
     28 C23       -11.3500    0.1251   -2.8805 C.ar      1 <0>        -0.0764
     29 O5        -14.5426    1.4195   -1.7107 O.3       1 <0>        -0.3186
     30 C24       -14.3962    2.7575   -2.1906 C.3       1 <0>         0.0269
     31 H1          0.7529    1.9368   -1.6370 H         1 <0>         0.0587
     32 H2         -0.9862    1.9220   -2.0160 H         1 <0>         0.0601
     33 H3         -0.4445    1.9016   -0.3206 H         1 <0>         0.0601
     34 H4          0.0197   -0.3175   -2.3643 H         1 <0>         0.0695
     35 H5          0.5613   -0.3379   -0.6689 H         1 <0>         0.0692
     36 H6         -1.8972    1.0676    0.5106 H         1 <0>         0.0769
     37 H7         -2.8586   -0.4022    0.8001 H         1 <0>         0.0762
     38 H8         -1.1195   -0.3874    1.1790 H         1 <0>         0.0568
     39 H9         -2.4214   -0.3383   -2.8962 H         1 <0>         0.0561
     40 H10        -3.6189   -0.3735   -1.5798 H         1 <0>         0.0809
     41 H11        -2.6574    1.0962   -1.8692 H         1 <0>         0.0751
     42 H12        -1.4014   -5.4572   -1.3808 H         1 <0>         0.0783
     43 H13        -0.6142   -4.0925   -0.5471 H         1 <0>         0.1351
     44 H14        -0.3573   -6.2799    0.6782 H         1 <0>         0.0846
     45 H15        -1.1960   -5.0356    1.6366 H         1 <0>         0.0692
     46 H16        -2.5580   -7.2320    0.0119 H         1 <0>         0.0708
     47 H17        -2.3531   -7.2352    1.7798 H         1 <0>         0.0770
     48 H18        -4.6062   -6.4221    1.1703 H         1 <0>         0.0853
     49 H19        -3.6548   -5.1179    1.9214 H         1 <0>         0.0837
     50 H20        -4.1203   -5.5474   -1.0592 H         1 <0>         0.1078
     51 H21        -7.6495   -3.2840    0.2523 H         1 <0>         0.0638
     52 H22        -6.7571   -1.9841   -0.5737 H         1 <0>         0.0707
     53 H23        -7.6405   -2.7638   -2.7554 H         1 <0>         0.0736
     54 H24        -8.5329   -4.0638   -1.9295 H         1 <0>         0.0737
     55 H25        -9.7997   -2.3710   -0.6340 H         1 <0>         0.0676
     56 H26        -8.9073   -1.0711   -1.4599 H         1 <0>         0.0674
     57 H27        -9.7907   -1.8508   -3.6417 H         1 <0>         0.0728
     58 H28       -10.6831   -3.1507   -2.8158 H         1 <0>         0.0738
     59 H29       -12.6071   -2.6466   -1.4231 H         1 <0>         0.1290
     60 H30       -14.4666   -1.0953   -0.9815 H         1 <0>         0.1305
     61 H31       -12.3321    2.0208   -2.9812 H         1 <0>         0.1276
     62 H32       -10.4729    0.4658   -3.4107 H         1 <0>         0.1242
     63 H33       -13.5183    3.2136   -1.7330 H         1 <0>         0.0556
     64 H34       -14.2757    2.7439   -3.2738 H         1 <0>         0.0556
     65 H35       -15.2830    3.3357   -1.9310 H         1 <0>         0.1008
@<TRIPOS>BOND
     1    1    2 1
     2    1   31 1
     3    1   32 1
     4    1   33 1
     5    2    3 1
     6    2   34 1
     7    2   35 1
     8    3    4 1
     9    3    5 1
    10    3    6 1
    11    4   36 1
    12    4   37 1
    13    4   38 1
    14    5   39 1
    15    5   40 1
    16    5   41 1
    17    6    7 2
    18    6    8 1
    19    8    9 2
    20    8   10 am
    21   10   15 1
    22   10   11 1
    23   11   12 1
    24   11   42 1
    25   11   43 1
    26   12   13 1
    27   12   44 1
    28   12   45 1
    29   13   14 1
    30   13   46 1
    31   13   47 1
    32   14   15 1
    33   14   48 1
    34   14   49 1
    35   15   16 1
    36   15   50 1
    37   16   17 2
    38   16   18 1
    39   18   19 1
    40   19   20 1
    41   19   51 1
    42   19   52 1
    43   20   21 1
    44   20   53 1
    45   20   54 1
    46   21   22 1
    47   21   55 1
    48   21   56 1
    49   22   23 1
    50   22   57 1
    51   22   58 1
    52   23   28 ar
    53   23   24 ar
    54   24   25 ar
    55   24   59 1
    56   25   26 ar
    57   25   60 1
    58   26   27 ar
    59   26   29 1
    60   27   28 ar
    61   27   61 1
    62   28   62 1
    63   29   30 1
    64   30   63 1
    65   30   64 1
    66   30   65 1
@<TRIPOS>MOLECULE
CHEMBL120311
   60    61     0     0     0
SMALL
USER_CHARGES

@<TRIPOS>ATOM
      1 C1          5.1458    0.5591    1.0095 C.3       1 <0>        -0.1556
      2 C2          4.5500   -0.8456    0.8970 C.3       1 <0>        -0.1083
      3 C3          4.2300   -1.1479   -0.5683 C.3       1 <0>        -0.0877
      4 C4          3.2221   -0.1229   -1.0922 C.3       1 <0>        -0.1450
      5 C5          5.5137   -1.0706   -1.3971 C.3       1 <0>        -0.1468
      6 C6          3.6430   -2.5315   -0.6792 C.2       1 <0>         0.3672
      7 O1          3.4959   -3.2062    0.3117 O.2       1 <0>        -0.4101
      8 C7          3.2441   -3.0674   -2.0120 C.2       1 <0>         0.4705
      9 O2          3.5412   -2.4640   -3.0223 O.2       1 <0>        -0.4786
     10 N1          2.5536   -4.2218   -2.0949 N.am      1 <0>        -0.5763
     11 C8          2.1147   -4.9206   -0.8793 C.3       1 <0>         0.0642
     12 C9          0.6059   -5.1693   -0.9709 C.3       1 <0>        -0.1375
     13 C10         0.2937   -5.9137   -2.2712 C.3       1 <0>        -0.1202
     14 C11         0.7153   -5.0555   -3.4661 C.3       1 <0>        -0.1244
     15 C12         2.2201   -4.8023   -3.4028 C.3       1 <0>         0.0899
     16 H1          2.7519   -5.7452   -3.5304 H         1 <0>         0.0976
     17 C13         2.6155   -3.8440   -4.4965 C.2       1 <0>         0.3624
     18 O3          2.1714   -2.7211   -4.5052 O.2       1 <0>        -0.4139
     19 C14         3.5652   -4.2870   -5.5795 C.3       1 <0>        -0.1591
     20 C15         3.7989   -3.1329   -6.5564 C.3       1 <0>        -0.1066
     21 C16         4.7630   -3.5827   -7.6560 C.3       1 <0>        -0.1121
     22 C17         4.9967   -2.4286   -8.6329 C.3       1 <0>        -0.0818
     23 C18         5.9464   -2.8716   -9.7159 C.ar      1 <0>        -0.0806
     24 C19         7.3089   -2.7084   -9.5496 C.ar      1 <0>        -0.1188
     25 C20         8.1801   -3.1148  -10.5430 C.ar      1 <0>        -0.1181
     26 C21         7.6886   -3.6848  -11.7025 C.ar      1 <0>        -0.1266
     27 C22         6.3261   -3.8488  -11.8684 C.ar      1 <0>        -0.1183
     28 C23         5.4552   -3.4464  -10.8732 C.ar      1 <0>        -0.1191
     29 H2          6.0604    0.6142    0.4191 H         1 <0>         0.0601
     30 H3          4.4278    1.2893    0.6363 H         1 <0>         0.0600
     31 H4          5.3738    0.7745    2.0534 H         1 <0>         0.0582
     32 H5          5.2680   -1.5758    1.2702 H         1 <0>         0.0688
     33 H6          3.6354   -0.9007    1.4874 H         1 <0>         0.0684
     34 H7          3.6466    0.8778   -1.0120 H         1 <0>         0.0758
     35 H8          2.9942   -0.3383   -2.1361 H         1 <0>         0.0774
     36 H9          2.3076   -0.1780   -0.5018 H         1 <0>         0.0554
     37 H10         6.2317   -1.8008   -1.0239 H         1 <0>         0.0548
     38 H11         5.2857   -1.2860   -2.4411 H         1 <0>         0.0828
     39 H12         5.9382   -0.0698   -1.3169 H         1 <0>         0.0740
     40 H13         2.6377   -5.8733   -0.7965 H         1 <0>         0.0738
     41 H14         2.3312   -4.3054   -0.0059 H         1 <0>         0.1379
     42 H15         0.2840   -5.7710   -0.1210 H         1 <0>         0.0811
     43 H16         0.0788   -4.2153   -0.9623 H         1 <0>         0.0669
     44 H17         0.8406   -6.8564   -2.2902 H         1 <0>         0.0683
     45 H18        -0.7763   -6.1136   -2.3272 H         1 <0>         0.0726
     46 H19         0.4713   -5.5762   -4.3921 H         1 <0>         0.0816
     47 H20         0.1871   -4.1025   -3.4340 H         1 <0>         0.0764
     48 H21         4.5143   -4.5821   -5.1321 H         1 <0>         0.0927
     49 H22         3.1365   -5.1346   -6.1143 H         1 <0>         0.0924
     50 H23         2.8497   -2.8378   -7.0039 H         1 <0>         0.0662
     51 H24         4.2275   -2.2854   -6.0217 H         1 <0>         0.0730
     52 H25         5.7121   -3.8778   -7.2085 H         1 <0>         0.0631
     53 H26         4.3343   -4.4303   -8.1908 H         1 <0>         0.0629
     54 H27         4.0476   -2.1335   -9.0803 H         1 <0>         0.0725
     55 H28         5.4254   -1.5811   -8.0981 H         1 <0>         0.0731
     56 H29         7.6929   -2.2631   -8.6436 H         1 <0>         0.1206
     57 H30         9.2446   -2.9866  -10.4133 H         1 <0>         0.1211
     58 H31         8.3692   -4.0016  -12.4789 H         1 <0>         0.1205
     59 H32         5.9422   -4.2938  -12.7745 H         1 <0>         0.1211
     60 H33         4.3910   -3.5779  -11.0012 H         1 <0>         0.1205
@<TRIPOS>BOND
     1    1    2 1
     2    1   29 1
     3    1   30 1
     4    1   31 1
     5    2    3 1
     6    2   32 1
     7    2   33 1
     8    3    4 1
     9    3    5 1
    10    3    6 1
    11    4   34 1
    12    4   35 1
    13    4   36 1
    14    5   37 1
    15    5   38 1
    16    5   39 1
    17    6    7 2
    18    6    8 1
    19    8    9 2
    20    8   10 am
    21   10   15 1
    22   10   11 1
    23   11   12 1
    24   11   40 1
    25   11   41 1
    26   12   13 1
    27   12   42 1
    28   12   43 1
    29   13   14 1
    30   13   44 1
    31   13   45 1
    32   14   15 1
    33   14   46 1
    34   14   47 1
    35   15   16 1
    36   15   17 1
    37   17   18 2
    38   17   19 1
    39   19   20 1
    40   19   48 1
    41   19   49 1
    42   20   21 1
    43   20   50 1
    44   20   51 1
    45   21   22 1
    46   21   52 1
    47   21   53 1
    48   22   23 1
    49   22   54 1
    50   22   55 1
    51   23   28 ar
    52   23   24 ar
    53   24   25 ar
    54   24   56 1
    55   25   26 ar
    56   25   57 1
    57   26   27 ar
    58   26   58 1
    59   27   28 ar
    60   27   59 1
    61   28   60 1
@<TRIPOS>MOLECULE
CHEMBL148435
   68    70     0     0     0
SMALL
USER_CHARGES

@<TRIPOS>ATOM
      1 C1          0.1369    1.5293    0.0936 C.3       1 <0>        -0.1557
      2 C2          0.1253   -0.0005    0.0695 C.3       1 <0>        -0.1087
      3 C3          0.8052   -0.4956   -1.2086 C.3       1 <0>        -0.0865
      4 C4          0.0511    0.0394   -2.4276 C.3       1 <0>        -0.1465
      5 C5          2.2509    0.0041   -1.2435 C.3       1 <0>        -0.1456
      6 C6          0.7938   -2.0024   -1.2323 C.2       1 <0>         0.3749
      7 O1          0.2933   -2.6169   -0.3209 O.2       1 <0>        -0.4049
      8 C7          1.4001   -2.7344   -2.3808 C.2       1 <0>         0.4752
      9 O2          1.8028   -2.1206   -3.3472 O.2       1 <0>        -0.4777
     10 N1          1.5012   -4.0780   -2.3458 N.am      1 <0>        -0.5764
     11 C8          0.8893   -4.8465   -1.2533 C.3       1 <0>         0.0473
     12 C9          1.9584   -5.7449   -0.6234 C.3       1 <0>        -0.1355
     13 C10         2.6027   -6.6051   -1.7130 C.3       1 <0>        -0.1200
     14 C11         3.2790   -5.7008   -2.7459 C.3       1 <0>        -0.1228
     15 C12         2.2201   -4.8023   -3.4028 C.3       1 <0>         0.1483
     16 C13         2.8920   -3.8166   -4.3236 C.2       1 <0>         0.4815
     17 O3          3.7726   -3.1028   -3.9056 O.2       1 <0>        -0.4889
     18 O4          2.5121   -3.7317   -5.6082 O.3       1 <0>        -0.3394
     19 C14         3.1920   -2.7755   -6.4240 C.3       1 <0>         0.1394
     20 H1          3.5149   -1.9364   -5.8077 H         1 <0>         0.0956
     21 C15         2.2458   -2.2720   -7.5159 C.3       1 <0>        -0.1013
     22 C16         1.0878   -1.5056   -6.8737 C.3       1 <0>        -0.0765
     23 C17         0.1559   -1.0097   -7.9491 C.ar      1 <0>        -0.0793
     24 C18         0.3611    0.2308   -8.5235 C.ar      1 <0>        -0.1180
     25 C19        -0.4937    0.6857   -9.5100 C.ar      1 <0>        -0.1180
     26 C20        -1.5535   -0.1001   -9.9225 C.ar      1 <0>        -0.1257
     27 C21        -1.7582   -1.3410   -9.3488 C.ar      1 <0>        -0.1182
     28 C22        -0.9009   -1.7977   -8.3653 C.ar      1 <0>        -0.1167
     29 C23         4.3945   -3.4231   -7.0607 C.ar      1 <0>        -0.1116
     30 C24         4.3094   -4.7160   -7.5423 C.ar      1 <0>        -0.1003
     31 C25         5.4125   -5.3101   -8.1264 C.ar      1 <0>        -0.1225
     32 C26         6.6006   -4.6111   -8.2294 C.ar      1 <0>        -0.1157
     33 C27         6.6855   -3.3178   -7.7486 C.ar      1 <0>        -0.1204
     34 C28         5.5812   -2.7222   -7.1683 C.ar      1 <0>        -0.1003
     35 H2          1.1668    1.8853    0.0687 H         1 <0>         0.0601
     36 H3         -0.4004    1.9104   -0.7749 H         1 <0>         0.0602
     37 H4         -0.3475    1.8820    1.0041 H         1 <0>         0.0587
     38 H5          0.6625   -0.3816    0.9379 H         1 <0>         0.0693
     39 H6         -0.9047   -0.3564    0.0944 H         1 <0>         0.0696
     40 H7          0.0593    1.1292   -2.4104 H         1 <0>         0.0755
     41 H8          0.5355   -0.3133   -3.3381 H         1 <0>         0.0812
     42 H9         -0.9789   -0.3165   -2.4026 H         1 <0>         0.0562
     43 H10         2.7882   -0.3771   -0.3751 H         1 <0>         0.0562
     44 H11         2.7353   -0.3487   -2.1541 H         1 <0>         0.0783
     45 H12         2.2592    1.0939   -1.2264 H         1 <0>         0.0762
     46 H13         0.4970   -4.1627   -0.5006 H         1 <0>         0.1556
     47 H14         0.0808   -5.4620   -1.6476 H         1 <0>         0.0740
     48 H15         2.7208   -5.1262   -0.1501 H         1 <0>         0.0683
     49 H16         1.4970   -6.3901    0.1242 H         1 <0>         0.0829
     50 H17         3.3466   -7.2630   -1.2637 H         1 <0>         0.0759
     51 H18         1.8358   -7.2054   -2.2026 H         1 <0>         0.0699
     52 H19         4.0289   -5.0825   -2.2526 H         1 <0>         0.0823
     53 H20         3.7576   -6.3147   -3.5090 H         1 <0>         0.0837
     54 H21         1.5179   -5.4143   -3.9689 H         1 <0>         0.1064
     55 H22         2.7892   -1.6108   -8.1909 H         1 <0>         0.0845
     56 H23         1.8535   -3.1206   -8.0763 H         1 <0>         0.0761
     57 H24         0.5445   -2.1668   -6.1986 H         1 <0>         0.0773
     58 H25         1.4802   -0.6570   -6.3133 H         1 <0>         0.0740
     59 H26         1.1891    0.8448   -8.2012 H         1 <0>         0.1205
     60 H27        -0.3338    1.6552   -9.9582 H         1 <0>         0.1209
     61 H28        -2.2218    0.2556  -10.6927 H         1 <0>         0.1202
     62 H29        -2.5864   -1.9549   -9.6709 H         1 <0>         0.1207
     63 H30        -1.0586   -2.7688   -7.9197 H         1 <0>         0.1200
     64 H31         3.3811   -5.2622   -7.4619 H         1 <0>         0.1244
     65 H32         5.3461   -6.3205   -8.5021 H         1 <0>         0.1231
     66 H33         7.4626   -5.0754   -8.6851 H         1 <0>         0.1225
     67 H34         7.6138   -2.7718   -7.8287 H         1 <0>         0.1238
     68 H35         5.6464   -1.7105   -6.7961 H         1 <0>         0.1224
@<TRIPOS>BOND
     1    1    2 1
     2    1   35 1
     3    1   36 1
     4    1   37 1
     5    2    3 1
     6    2   38 1
     7    2   39 1
     8    3    4 1
     9    3    5 1
    10    3    6 1
    11    4   40 1
    12    4   41 1
    13    4   42 1
    14    5   43 1
    15    5   44 1
    16    5   45 1
    17    6    7 2
    18    6    8 1
    19    8    9 2
    20    8   10 am
    21   10   15 1
    22   10   11 1
    23   11   12 1
    24   11   46 1
    25   11   47 1
    26   12   13 1
    27   12   48 1
    28   12   49 1
    29   13   14 1
    30   13   50 1
    31   13   51 1
    32   14   15 1
    33   14   52 1
    34   14   53 1
    35   15   16 1
    36   15   54 1
    37   16   17 2
    38   16   18 1
    39   18   19 1
    40   19   20 1
    41   19   21 1
    42   19   29 1
    43   21   22 1
    44   21   55 1
    45   21   56 1
    46   22   23 1
    47   22   57 1
    48   22   58 1
    49   23   28 ar
    50   23   24 ar
    51   24   25 ar
    52   24   59 1
    53   25   26 ar
    54   25   60 1
    55   26   27 ar
    56   26   61 1
    57   27   28 ar
    58   27   62 1
    59   28   63 1
    60   29   34 ar
    61   29   30 ar
    62   30   31 ar
    63   30   64 1
    64   31   32 ar
    65   31   65 1
    66   32   33 ar
    67   32   66 1
    68   33   34 ar
    69   33   67 1
    70   34   68 1
@<TRIPOS>MOLECULE
CHEMBL148435__1
   68    70     0     0     0
SMALL
USER_CHARGES

@<TRIPOS>ATOM
      1 C1          1.0332    1.5727    0.4370 C.3       1 <0>        -0.1551
      2 C2          1.1085    0.0446    0.4487 C.3       1 <0>        -0.1079
      3 C3          1.4618   -0.4594   -0.9520 C.3       1 <0>        -0.0862
      4 C4          0.3858   -0.0095   -1.9423 C.3       1 <0>        -0.1441
      5 C5          2.8157    0.1147   -1.3742 C.3       1 <0>        -0.1468
      6 C6          1.5360   -1.9646   -0.9404 C.2       1 <0>         0.3695
      7 O1          1.3277   -2.5716    0.0828 O.2       1 <0>        -0.4096
      8 C7          1.8664   -2.7043   -2.1920 C.2       1 <0>         0.4680
      9 O2          2.2290   -2.0968   -3.1781 O.2       1 <0>        -0.4618
     10 N1          1.7623   -4.0475   -2.2283 N.am      1 <0>        -0.5804
     11 C8          1.1835   -4.7844   -1.0966 C.3       1 <0>         0.0735
     12 C9          0.0529   -5.6778   -1.6165 C.3       1 <0>        -0.1391
     13 C10         0.5880   -6.5694   -2.7393 C.3       1 <0>        -0.1190
     14 C11         1.0834   -5.6961   -3.8943 C.3       1 <0>        -0.1251
     15 C12         2.2201   -4.8023   -3.4028 C.3       1 <0>         0.1516
     16 C13         2.6155   -3.8440   -4.4965 C.2       1 <0>         0.4771
     17 O3          1.7750   -3.1667   -5.0393 O.2       1 <0>        -0.4795
     18 O4          3.9015   -3.7429   -4.8677 O.3       1 <0>        -0.3428
     19 C14         4.2046   -2.8145   -5.9109 C.3       1 <0>         0.1389
     20 H1          3.3490   -2.7285   -6.5807 H         1 <0>         0.0894
     21 C15         5.4200   -3.3098   -6.6972 C.3       1 <0>        -0.1042
     22 C16         5.0686   -4.6177   -7.4089 C.3       1 <0>        -0.0814
     23 C17         6.2658   -5.1056   -8.1834 C.ar      1 <0>        -0.0813
     24 C18         6.4513   -4.7056   -9.4936 C.ar      1 <0>        -0.1180
     25 C19         7.5494   -5.1531  -10.2040 C.ar      1 <0>        -0.1179
     26 C20         8.4624   -6.0001   -9.6041 C.ar      1 <0>        -0.1247
     27 C21         8.2775   -6.3993   -8.2936 C.ar      1 <0>        -0.1181
     28 C22         7.1816   -5.9484   -7.5818 C.ar      1 <0>        -0.1162
     29 C23         4.5099   -1.4664   -5.3105 C.ar      1 <0>        -0.0936
     30 C24         5.2584   -1.3795   -4.1516 C.ar      1 <0>        -0.0887
     31 C25         5.5385   -0.1429   -3.6009 C.ar      1 <0>        -0.1211
     32 C26         5.0705    1.0068   -4.2093 C.ar      1 <0>        -0.1142
     33 C27         4.3228    0.9199   -5.3687 C.ar      1 <0>        -0.1195
     34 C28         4.0463   -0.3165   -5.9218 C.ar      1 <0>        -0.0974
     35 H2          1.9977    1.9817    0.1362 H         1 <0>         0.0599
     36 H3          0.2666    1.8932   -0.2686 H         1 <0>         0.0596
     37 H4          0.7815    1.9317    1.4349 H         1 <0>         0.0580
     38 H5          1.8750   -0.2760    1.1542 H         1 <0>         0.0686
     39 H6          0.1440   -0.3644    0.7495 H         1 <0>         0.0680
     40 H7          0.3321    1.0792   -1.9507 H         1 <0>         0.0754
     41 H8          0.6375   -0.3685   -2.9403 H         1 <0>         0.0764
     42 H9         -0.5787   -0.4185   -1.6416 H         1 <0>         0.0551
     43 H10         3.5822   -0.2059   -0.6687 H         1 <0>         0.0530
     44 H11         3.0673   -0.2444   -2.3721 H         1 <0>         0.0875
     45 H12         2.7620    1.2033   -1.3826 H         1 <0>         0.0723
     46 H13         1.9520   -5.4013   -0.6308 H         1 <0>         0.0765
     47 H14         0.7858   -4.0794   -0.3666 H         1 <0>         0.1341
     48 H15        -0.3212   -6.3009   -0.8041 H         1 <0>         0.0836
     49 H16        -0.7555   -5.0554   -2.0001 H         1 <0>         0.0688
     50 H17         1.4126   -7.1738   -2.3614 H         1 <0>         0.0702
     51 H18        -0.2084   -7.2235   -3.0944 H         1 <0>         0.0763
     52 H19         1.4427   -6.3322   -4.7032 H         1 <0>         0.0843
     53 H20         0.2653   -5.0735   -4.2565 H         1 <0>         0.0833
     54 H21         3.0749   -5.4208   -3.1293 H         1 <0>         0.1052
     55 H22         5.7056   -2.5600   -7.4350 H         1 <0>         0.0861
     56 H23         6.2508   -3.4805   -6.0125 H         1 <0>         0.0781
     57 H24         4.7831   -5.3675   -6.6711 H         1 <0>         0.0773
     58 H25         4.2379   -4.4470   -8.0937 H         1 <0>         0.0722
     59 H26         5.7380   -4.0439   -9.9623 H         1 <0>         0.1208
     60 H27         7.6939   -4.8412  -11.2278 H         1 <0>         0.1215
     61 H28         9.3200   -6.3503  -10.1593 H         1 <0>         0.1208
     62 H29         8.9906   -7.0613   -7.8250 H         1 <0>         0.1215
     63 H30         7.0391   -6.2573   -6.5568 H         1 <0>         0.1213
     64 H31         5.6241   -2.2776   -3.6762 H         1 <0>         0.1167
     65 H32         6.1227   -0.0750   -2.6950 H         1 <0>         0.1175
     66 H33         5.2888    1.9728   -3.7786 H         1 <0>         0.1186
     67 H34         3.9569    1.8180   -5.8439 H         1 <0>         0.1199
     68 H35         3.4653   -0.3842   -6.8297 H         1 <0>         0.1176
@<TRIPOS>BOND
     1    1    2 1
     2    1   35 1
     3    1   36 1
     4    1   37 1
     5    2    3 1
     6    2   38 1
     7    2   39 1
     8    3    4 1
     9    3    5 1
    10    3    6 1
    11    4   40 1
    12    4   41 1
    13    4   42 1
    14    5   43 1
    15    5   44 1
    16    5   45 1
    17    6    7 2
    18    6    8 1
    19    8    9 2
    20    8   10 am
    21   10   15 1
    22   10   11 1
    23   11   12 1
    24   11   46 1
    25   11   47 1
    26   12   13 1
    27   12   48 1
    28   12   49 1
    29   13   14 1
    30   13   50 1
    31   13   51 1
    32   14   15 1
    33   14   52 1
    34   14   53 1
    35   15   16 1
    36   15   54 1
    37   16   17 2
    38   16   18 1
    39   18   19 1
    40   19   20 1
    41   19   21 1
    42   19   29 1
    43   21   22 1
    44   21   55 1
    45   21   56 1
    46   22   23 1
    47   22   57 1
    48   22   58 1
    49   23   28 ar
    50   23   24 ar
    51   24   25 ar
    52   24   59 1
    53   25   26 ar
    54   25   60 1
    55   26   27 ar
    56   26   61 1
    57   27   28 ar
    58   27   62 1
    59   28   63 1
    60   29   34 ar
    61   29   30 ar
    62   30   31 ar
    63   30   64 1
    64   31   32 ar
    65   31   65 1
    66   32   33 ar
    67   32   66 1
    68   33   34 ar
    69   33   67 1
    70   34   68 1
@<TRIPOS>MOLECULE
CHEMBL151517
   61    62     0     0     0
SMALL
USER_CHARGES

@<TRIPOS>ATOM
      1 C1         -0.0187    1.5258    0.0104 C.3       1 <0>        -0.1556
      2 C2          0.0021   -0.0041    0.0020 C.3       1 <0>        -0.1076
      3 C3         -1.4333   -0.5336    0.0129 C.3       1 <0>        -0.0877
      4 C4         -2.1494   -0.0402    1.2717 C.3       1 <0>        -0.1464
      5 C5         -2.1733   -0.0268   -1.2266 C.3       1 <0>        -0.1459
      6 C6         -1.4129   -2.0405    0.0046 C.2       1 <0>         0.3686
      7 O1         -0.3588   -2.6301   -0.0086 O.2       1 <0>        -0.4128
      8 C7         -2.6937   -2.8034    0.0127 C.2       1 <0>         0.4993
      9 O2         -3.7529   -2.2110    0.0260 O.2       1 <0>        -0.4891
     10 N1         -2.6754   -4.1510    0.0053 N.am      1 <0>        -0.5869
     11 C8         -1.4659   -4.9939   -0.0043 C.3       1 <0>         0.0927
     12 C9         -1.9192   -6.3449    0.6032 C.3       1 <0>        -0.1345
     13 C10        -3.3521   -6.4817    0.0242 C.3       1 <0>        -0.1186
     14 C11        -3.8584   -5.0241    0.0119 C.3       1 <0>         0.1442
     15 C12        -4.6819   -4.7808   -1.2265 C.2       1 <0>         0.4532
     16 O3         -4.3235   -3.9614   -2.0390 O.2       1 <0>        -0.4872
     17 O4         -5.8135   -5.4743   -1.4270 O.3       1 <0>        -0.3494
     18 C13        -6.5440   -5.1923   -2.6223 C.3       1 <0>         0.0658
     19 C14        -7.7939   -6.0732   -2.6760 C.3       1 <0>        -0.1186
     20 C15        -8.5761   -5.7713   -3.9558 C.3       1 <0>        -0.1134
     21 C16        -9.8259   -6.6522   -4.0094 C.3       1 <0>        -0.0850
     22 C17        -9.4106   -8.1201   -4.1257 C.3       1 <0>        -0.1170
     23 C18       -10.6604   -9.0010   -4.1793 C.3       1 <0>        -0.1208
     24 C19       -11.5064   -8.6127   -5.3936 C.3       1 <0>        -0.1211
     25 C20       -11.9217   -7.1447   -5.2773 C.3       1 <0>        -0.1205
     26 C21       -10.6718   -6.2638   -5.2237 C.3       1 <0>        -0.1153
     27 H1          1.0039    1.9031    0.0027 H         1 <0>         0.0583
     28 H2         -0.5459    1.8868   -0.8726 H         1 <0>         0.0601
     29 H3         -0.5289    1.8773    0.9072 H         1 <0>         0.0601
     30 H4          0.5123   -0.3556   -0.8948 H         1 <0>         0.0688
     31 H5          0.5293   -0.3651    0.8851 H         1 <0>         0.0689
     32 H6         -2.1642    1.0497    1.2777 H         1 <0>         0.0758
     33 H7         -3.1720   -0.4175    1.2794 H         1 <0>         0.0776
     34 H8         -1.6223   -0.4013    2.1547 H         1 <0>         0.0565
     35 H9         -1.6631   -0.3783   -2.1234 H         1 <0>         0.0561
     36 H10        -3.1959   -0.4041   -1.2189 H         1 <0>         0.0786
     37 H11        -2.1881    1.0631   -1.2207 H         1 <0>         0.0750
     38 H12        -1.1113   -5.1369   -1.0251 H         1 <0>         0.0765
     39 H13        -0.6855   -4.5445    0.6098 H         1 <0>         0.1034
     40 H14        -1.2807   -7.1601    0.2629 H         1 <0>         0.0957
     41 H15        -1.9407   -6.2960    1.6919 H         1 <0>         0.0854
     42 H16        -3.3225   -6.8921   -0.9852 H         1 <0>         0.0850
     43 H17        -3.9734   -7.0979    0.6740 H         1 <0>         0.1030
     44 H18        -4.4572   -4.8302    0.9018 H         1 <0>         0.1205
     45 H19        -6.8386   -4.1429   -2.6291 H         1 <0>         0.0678
     46 H20        -5.9163   -5.3991   -3.4891 H         1 <0>         0.0664
     47 H21        -7.4993   -7.1226   -2.6692 H         1 <0>         0.0771
     48 H22        -8.4216   -5.8665   -1.8092 H         1 <0>         0.0747
     49 H23        -8.8706   -4.7219   -3.9625 H         1 <0>         0.0665
     50 H24        -7.9484   -5.9780   -4.8226 H         1 <0>         0.0659
     51 H25       -10.4095   -6.5106   -3.0997 H         1 <0>         0.0719
     52 H26        -8.8270   -8.2617   -5.0353 H         1 <0>         0.0615
     53 H27        -8.8079   -8.3968   -3.2606 H         1 <0>         0.0641
     54 H28       -10.3645  -10.0468   -4.2621 H         1 <0>         0.0608
     55 H29       -11.2440   -8.8595   -3.2696 H         1 <0>         0.0611
     56 H30       -10.9228   -8.7542   -6.3032 H         1 <0>         0.0607
     57 H31       -12.3968   -9.2402   -5.4318 H         1 <0>         0.0602
     58 H32       -12.5243   -6.8680   -6.1424 H         1 <0>         0.0611
     59 H33       -12.5052   -7.0031   -4.3676 H         1 <0>         0.0612
     60 H34       -10.9677   -5.2180   -5.1408 H         1 <0>         0.0616
     61 H35       -10.0883   -6.4053   -6.1333 H         1 <0>         0.0619
@<TRIPOS>BOND
     1    1    2 1
     2    1   27 1
     3    1   28 1
     4    1   29 1
     5    2    3 1
     6    2   30 1
     7    2   31 1
     8    3    4 1
     9    3    5 1
    10    3    6 1
    11    4   32 1
    12    4   33 1
    13    4   34 1
    14    5   35 1
    15    5   36 1
    16    5   37 1
    17    6    7 2
    18    6    8 1
    19    8    9 2
    20    8   10 am
    21   10   14 1
    22   10   11 1
    23   11   12 1
    24   11   38 1
    25   11   39 1
    26   12   13 1
    27   12   40 1
    28   12   41 1
    29   13   14 1
    30   13   42 1
    31   13   43 1
    32   14   15 1
    33   14   44 1
    34   15   16 2
    35   15   17 1
    36   17   18 1
    37   18   19 1
    38   18   45 1
    39   18   46 1
    40   19   20 1
    41   19   47 1
    42   19   48 1
    43   20   21 1
    44   20   49 1
    45   20   50 1
    46   21   26 1
    47   21   22 1
    48   21   51 1
    49   22   23 1
    50   22   52 1
    51   22   53 1
    52   23   24 1
    53   23   54 1
    54   23   55 1
    55   24   25 1
    56   24   56 1
    57   24   57 1
    58   25   26 1
    59   25   58 1
    60   25   59 1
    61   26   60 1
    62   26   61 1
@<TRIPOS>MOLECULE
CHEMBL151517__1
   61    62     0     0     0
SMALL
USER_CHARGES

@<TRIPOS>ATOM
      1 C1         -0.0187    1.5258    0.0104 C.3       1 <0>        -0.1556
      2 C2          0.0021   -0.0041    0.0020 C.3       1 <0>        -0.1076
      3 C3         -1.4333   -0.5336    0.0129 C.3       1 <0>        -0.0877
      4 C4         -2.1494   -0.0402    1.2717 C.3       1 <0>        -0.1459
      5 C5         -2.1733   -0.0268   -1.2266 C.3       1 <0>        -0.1464
      6 C6         -1.4129   -2.0405    0.0046 C.2       1 <0>         0.3686
      7 O1         -0.3588   -2.6301   -0.0086 O.2       1 <0>        -0.4128
      8 C7         -2.6937   -2.8034    0.0127 C.2       1 <0>         0.4993
      9 O2         -3.7529   -2.2110    0.0260 O.2       1 <0>        -0.4890
     10 N1         -2.6754   -4.1510    0.0053 N.am      1 <0>        -0.5867
     11 C8         -1.4659   -4.9939   -0.0043 C.3       1 <0>         0.0922
     12 C9         -1.9247   -6.3388   -0.6210 C.3       1 <0>        -0.1342
     13 C10        -3.3523   -6.4815   -0.0303 C.3       1 <0>        -0.1185
     14 C11        -3.8584   -5.0241    0.0119 C.3       1 <0>         0.1438
     15 C12        -4.6590   -4.7929    1.2676 C.2       1 <0>         0.4534
     16 O3         -4.2857   -3.9814    2.0812 O.2       1 <0>        -0.4871
     17 O4         -5.7868   -5.4884    1.4820 O.3       1 <0>        -0.3494
     18 C13        -6.4953   -5.2181    2.6932 C.3       1 <0>         0.0658
     19 C14        -7.7440   -6.0996    2.7612 C.3       1 <0>        -0.1186
     20 C15        -8.5026   -5.8102    4.0580 C.3       1 <0>        -0.1134
     21 C16        -9.7513   -6.6917    4.1260 C.3       1 <0>        -0.0847
     22 C17       -10.7116   -6.3033    3.0000 C.3       1 <0>        -0.1175
     23 C18       -11.9603   -7.1848    3.0680 C.3       1 <0>        -0.1207
     24 C19       -12.6514   -6.9869    4.4186 C.3       1 <0>        -0.1212
     25 C20       -11.6910   -7.3753    5.5446 C.3       1 <0>        -0.1203
     26 C21       -10.4423   -6.4938    5.4766 C.3       1 <0>        -0.1153
     27 H1          1.0039    1.9031    0.0027 H         1 <0>         0.0583
     28 H2         -0.5459    1.8868   -0.8726 H         1 <0>         0.0601
     29 H3         -0.5289    1.8773    0.9072 H         1 <0>         0.0601
     30 H4          0.5123   -0.3556   -0.8948 H         1 <0>         0.0689
     31 H5          0.5293   -0.3651    0.8851 H         1 <0>         0.0688
     32 H6         -2.1642    1.0497    1.2777 H         1 <0>         0.0750
     33 H7         -3.1720   -0.4175    1.2794 H         1 <0>         0.0786
     34 H8         -1.6223   -0.4013    2.1547 H         1 <0>         0.0561
     35 H9         -1.6631   -0.3783   -2.1234 H         1 <0>         0.0565
     36 H10        -3.1959   -0.4041   -1.2189 H         1 <0>         0.0776
     37 H11        -2.1881    1.0631   -1.2207 H         1 <0>         0.0758
     38 H12        -0.6911   -4.5385   -0.6210 H         1 <0>         0.1040
     39 H13        -1.1021   -5.1469    1.0117 H         1 <0>         0.0762
     40 H14        -1.9562   -6.2793   -1.7089 H         1 <0>         0.0854
     41 H15        -1.2832   -7.1574   -0.2945 H         1 <0>         0.0957
     42 H16        -3.9796   -7.0913   -0.6806 H         1 <0>         0.1033
     43 H17        -3.3136   -6.9017    0.9747 H         1 <0>         0.0842
     44 H18        -4.4734   -4.8216   -0.8649 H         1 <0>         0.1203
     45 H19        -5.8518   -5.4332    3.5463 H         1 <0>         0.0663
     46 H20        -6.7896   -4.1689    2.7156 H         1 <0>         0.0679
     47 H21        -8.3875   -5.8845    1.9081 H         1 <0>         0.0776
     48 H22        -7.4497   -7.1489    2.7389 H         1 <0>         0.0743
     49 H23        -7.8591   -6.0253    4.9111 H         1 <0>         0.0661
     50 H24        -8.7969   -4.7609    4.0803 H         1 <0>         0.0664
     51 H25        -9.4644   -7.7373    4.0144 H         1 <0>         0.0716
     52 H26       -10.9985   -5.2577    3.1116 H         1 <0>         0.0618
     53 H27       -10.2193   -6.4443    2.0378 H         1 <0>         0.0643
     54 H28       -12.6445   -6.9082    2.2658 H         1 <0>         0.0609
     55 H29       -11.6735   -8.2305    2.9564 H         1 <0>         0.0610
     56 H30       -12.9383   -5.9413    4.5302 H         1 <0>         0.0608
     57 H31       -13.5410   -7.6149    4.4670 H         1 <0>         0.0602
     58 H32       -12.1834   -7.2343    6.5068 H         1 <0>         0.0610
     59 H33       -11.4042   -8.4209    5.4330 H         1 <0>         0.0611
     60 H34        -9.7582   -6.7705    6.2788 H         1 <0>         0.0614
     61 H35       -10.7292   -5.4482    5.5882 H         1 <0>         0.0621
@<TRIPOS>BOND
     1    1    2 1
     2    1   27 1
     3    1   28 1
     4    1   29 1
     5    2    3 1
     6    2   30 1
     7    2   31 1
     8    3    4 1
     9    3    5 1
    10    3    6 1
    11    4   32 1
    12    4   33 1
    13    4   34 1
    14    5   35 1
    15    5   36 1
    16    5   37 1
    17    6    7 2
    18    6    8 1
    19    8    9 2
    20    8   10 am
    21   10   14 1
    22   10   11 1
    23   11   12 1
    24   11   38 1
    25   11   39 1
    26   12   13 1
    27   12   40 1
    28   12   41 1
    29   13   14 1
    30   13   42 1
    31   13   43 1
    32   14   15 1
    33   14   44 1
    34   15   16 2
    35   15   17 1
    36   17   18 1
    37   18   19 1
    38   18   45 1
    39   18   46 1
    40   19   20 1
    41   19   47 1
    42   19   48 1
    43   20   21 1
    44   20   49 1
    45   20   50 1
    46   21   26 1
    47   21   22 1
    48   21   51 1
    49   22   23 1
    50   22   52 1
    51   22   53 1
    52   23   24 1
    53   23   54 1
    54   23   55 1
    55   24   25 1
    56   24   56 1
    57   24   57 1
    58   25   26 1
    59   25   58 1
    60   25   59 1
    61   26   60 1
    62   26   61 1
@<TRIPOS>MOLECULE
CHEMBL150120
   83    86     0     0     0
SMALL
USER_CHARGES

@<TRIPOS>ATOM
      1 C1         -2.7212    1.2313    2.7287 C.3       1 <0>         0.0207
      2 O1         -1.5922    1.1465    1.8569 O.3       1 <0>        -0.2977
      3 C2         -0.4161    0.7424    2.4073 C.ar      1 <0>         0.1373
      4 C3         -0.3548    0.4307    3.7506 C.ar      1 <0>        -0.1662
      5 C4          0.8572    0.0140    4.3167 C.ar      1 <0>        -0.0995
      6 C5          2.0030   -0.0846    3.5165 C.ar      1 <0>        -0.1726
      7 C6          1.9342    0.2287    2.1738 C.ar      1 <0>         0.1398
      8 C7          0.7250    0.6380    1.6128 C.ar      1 <0>         0.0723
      9 O2          0.6597    0.9401    0.2905 O.3       1 <0>        -0.3111
     10 C8          0.9219    2.2953   -0.0790 C.3       1 <0>         0.0359
     11 O3          3.0458    0.1333    1.3963 O.3       1 <0>        -0.2971
     12 C9          4.2493   -0.2974    2.0352 C.3       1 <0>         0.0232
     13 C10         0.9266   -0.3185    5.7475 C.2       1 <0>         0.4044
     14 O4         -0.0405   -0.1405    6.4597 O.2       1 <0>        -0.4085
     15 C11         2.1857   -0.8747    6.3240 C.2       1 <0>         0.4901
     16 O5          2.4021   -2.0678    6.2713 O.2       1 <0>        -0.4704
     17 N1          3.0825   -0.0521    6.9033 N.am      1 <0>        -0.5939
     18 C12         2.7833    1.3754    7.0811 C.3       1 <0>         0.1076
     19 C13         3.9189    2.1977    6.4637 C.3       1 <0>        -0.1389
     20 C14         5.2523    1.7547    7.0701 C.3       1 <0>        -0.1184
     21 C15         5.4952    0.2782    6.7490 C.3       1 <0>        -0.1235
     22 C16         4.3753   -0.5670    7.3747 C.3       1 <0>         0.1537
     23 C17         4.5301   -2.0056    6.9534 C.2       1 <0>         0.4682
     24 O6          4.3255   -2.3245    5.8061 O.2       1 <0>        -0.4678
     25 O7          4.8951   -2.9327    7.8529 O.3       1 <0>        -0.3423
     26 C18         5.0226   -4.2766    7.3841 C.3       1 <0>         0.0936
     27 C19         4.6992   -5.2466    8.5222 C.3       1 <0>        -0.1153
     28 C20         3.2296   -5.0943    8.9199 C.3       1 <0>        -0.1110
     29 C21         2.9062   -6.0643   10.0581 C.3       1 <0>        -0.0803
     30 C22         1.4587   -5.9144   10.4498 C.ar      1 <0>        -0.0811
     31 C23         1.0975   -5.0041   11.4254 C.ar      1 <0>        -0.1180
     32 C24        -0.2302   -4.8665   11.7848 C.ar      1 <0>        -0.1183
     33 C25        -1.1968   -5.6389   11.1682 C.ar      1 <0>        -0.1257
     34 C26        -0.8356   -6.5485   10.1919 C.ar      1 <0>        -0.1178
     35 C27         0.4916   -6.6830    9.8295 C.ar      1 <0>        -0.1179
     36 C28         6.4551   -4.5150    6.9024 C.3       1 <0>        -0.1330
     37 C29         6.7371   -3.6330    5.6844 C.3       1 <0>        -0.0725
     38 C30         8.1481   -3.8678    5.2100 C.ar      1 <0>        -0.1314
     39 C31         9.1937   -3.1092    5.7142 C.ar      1 <0>        -0.0748
     40 C32        10.4752   -3.3602    5.2487 C.ar      1 <0>        -0.1693
     41 C33        10.6667   -4.3510    4.3042 C.ar      1 <0>         0.0919
     42 N2          9.6483   -5.0526    3.8467 N.ar      1 <0>        -0.4817
     43 C34         8.4170   -4.8455    4.2713 C.ar      1 <0>         0.1011
     44 H1         -2.5114    1.9434    3.5267 H         1 <0>         0.0598
     45 H2         -3.5920    1.5645    2.1641 H         1 <0>         0.1078
     46 H3         -2.9215    0.2506    3.1603 H         1 <0>         0.0609
     47 H4         -1.2399    0.5082    4.3646 H         1 <0>         0.1501
     48 H5          2.9390   -0.4052    3.9496 H         1 <0>         0.1464
     49 H6          0.1993    2.9508    0.4072 H         1 <0>         0.0476
     50 H7          1.9293    2.5690    0.2345 H         1 <0>         0.0473
     51 H8          0.8370    2.3999   -1.1607 H         1 <0>         0.0971
     52 H9          5.0571   -0.3301    1.3041 H         1 <0>         0.1063
     53 H10         4.5078    0.4006    2.8314 H         1 <0>         0.0555
     54 H11         4.1009   -1.2914    2.4573 H         1 <0>         0.0640
     55 H12         1.8445    1.6168    6.5826 H         1 <0>         0.0851
     56 H13         2.7040    1.6025    8.1442 H         1 <0>         0.0863
     57 H14         3.9388    2.0385    5.3855 H         1 <0>         0.0721
     58 H15         3.7575    3.2552    6.6728 H         1 <0>         0.0871
     59 H16         6.0594    2.3552    6.6506 H         1 <0>         0.0793
     60 H17         5.2227    1.8910    8.1512 H         1 <0>         0.0737
     61 H18         5.5003    0.1371    5.6681 H         1 <0>         0.0801
     62 H19         6.4559   -0.0305    7.1611 H         1 <0>         0.0874
     63 H20         4.4231   -0.4950    8.4612 H         1 <0>         0.1102
     64 H21         4.3298   -4.4408    6.5588 H         1 <0>         0.0905
     65 H22         4.8820   -6.2689    8.1913 H         1 <0>         0.0843
     66 H23         5.3329   -5.0238    9.3806 H         1 <0>         0.0754
     67 H24         3.0468   -4.0720    9.2509 H         1 <0>         0.0673
     68 H25         2.5959   -5.3171    8.0615 H         1 <0>         0.0641
     69 H26         3.0890   -7.0867    9.7271 H         1 <0>         0.0721
     70 H27         3.5399   -5.8415   10.9165 H         1 <0>         0.0726
     71 H28         1.8526   -4.4007   11.9071 H         1 <0>         0.1198
     72 H29        -0.5124   -4.1559   12.5475 H         1 <0>         0.1208
     73 H30        -2.2340   -5.5319   11.4494 H         1 <0>         0.1205
     74 H31        -1.5907   -7.1522    9.7104 H         1 <0>         0.1211
     75 H32         0.7733   -7.3910    9.0642 H         1 <0>         0.1202
     76 H33         7.1534   -4.2653    7.7013 H         1 <0>         0.0740
     77 H34         6.5766   -5.5629    6.6281 H         1 <0>         0.0830
     78 H35         6.0389   -3.8827    4.8855 H         1 <0>         0.0845
     79 H36         6.6157   -2.5851    5.9588 H         1 <0>         0.0676
     80 H37         9.0140   -2.3410    6.4517 H         1 <0>         0.1308
     81 H38        11.3132   -2.7884    5.6191 H         1 <0>         0.1349
     82 H39        11.6619   -4.5527    3.9364 H         1 <0>         0.1553
     83 H40         7.6088   -5.4438    3.8773 H         1 <0>         0.1533
@<TRIPOS>BOND
     1    1    2 1
     2    1   44 1
     3    1   45 1
     4    1   46 1
     5    2    3 1
     6    3    8 ar
     7    3    4 ar
     8    4    5 ar
     9    4   47 1
    10    5    6 ar
    11    5   13 1
    12    6    7 ar
    13    6   48 1
    14    7    8 ar
    15    7   11 1
    16    8    9 1
    17    9   10 1
    18   10   49 1
    19   10   50 1
    20   10   51 1
    21   11   12 1
    22   12   52 1
    23   12   53 1
    24   12   54 1
    25   13   14 2
    26   13   15 1
    27   15   16 2
    28   15   17 am
    29   17   22 1
    30   17   18 1
    31   18   19 1
    32   18   55 1
    33   18   56 1
    34   19   20 1
    35   19   57 1
    36   19   58 1
    37   20   21 1
    38   20   59 1
    39   20   60 1
    40   21   22 1
    41   21   61 1
    42   21   62 1
    43   22   23 1
    44   22   63 1
    45   23   24 2
    46   23   25 1
    47   25   26 1
    48   26   27 1
    49   26   36 1
    50   26   64 1
    51   27   28 1
    52   27   65 1
    53   27   66 1
    54   28   29 1
    55   28   67 1
    56   28   68 1
    57   29   30 1
    58   29   69 1
    59   29   70 1
    60   30   35 ar
    61   30   31 ar
    62   31   32 ar
    63   31   71 1
    64   32   33 ar
    65   32   72 1
    66   33   34 ar
    67   33   73 1
    68   34   35 ar
    69   34   74 1
    70   35   75 1
    71   36   37 1
    72   36   76 1
    73   36   77 1
    74   37   38 1
    75   37   78 1
    76   37   79 1
    77   38   43 ar
    78   38   39 ar
    79   39   40 ar
    80   39   80 1
    81   40   41 ar
    82   40   81 1
    83   41   42 ar
    84   41   82 1
    85   42   43 ar
    86   43   83 1
@<TRIPOS>MOLECULE
CHEMBL150120__1
   83    86     0     0     0
SMALL
USER_CHARGES

@<TRIPOS>ATOM
      1 C1         -1.4593    1.5520    1.3634 C.3       1 <0>         0.0209
      2 O1         -0.1868    1.3180    0.7566 O.3       1 <0>        -0.2982
      3 C2          0.8029    0.8452    1.5606 C.ar      1 <0>         0.1366
      4 C3          0.5513    0.6082    2.8970 C.ar      1 <0>        -0.1672
      5 C4          1.5715    0.1208    3.7244 C.ar      1 <0>        -0.0980
      6 C5          2.8439   -0.1244    3.1917 C.ar      1 <0>        -0.1710
      7 C6          3.0882    0.1150    1.8543 C.ar      1 <0>         0.1384
      8 C7          2.0690    0.5951    1.0327 C.ar      1 <0>         0.0713
      9 O2          2.3113    0.8241   -0.2836 O.3       1 <0>        -0.3114
     10 C8          2.7764    2.1273   -0.6405 C.3       1 <0>         0.0359
     11 O3          4.3229   -0.1226    1.3363 O.3       1 <0>        -0.2978
     12 C9          5.3183   -0.6191    2.2335 C.3       1 <0>         0.0236
     13 C10         1.3075   -0.1325    5.1487 C.2       1 <0>         0.4037
     14 O4          0.2349    0.1703    5.6306 O.2       1 <0>        -0.4112
     15 C11         2.3578   -0.7618    6.0019 C.2       1 <0>         0.4798
     16 O5          2.4613   -1.9704    6.0446 O.2       1 <0>        -0.4538
     17 N1          3.1914    0.0119    6.7250 N.am      1 <0>        -0.5960
     18 C12         2.9303    1.4490    6.8837 C.3       1 <0>         0.1084
     19 C13         4.1799    2.2270    6.4596 C.3       1 <0>        -0.1395
     20 C14         5.3866    1.7164    7.2503 C.3       1 <0>        -0.1184
     21 C15         5.6118    0.2347    6.9405 C.3       1 <0>        -0.1220
     22 C16         4.3753   -0.5670    7.3747 C.3       1 <0>         0.1558
     23 C17         4.5301   -2.0056    6.9534 C.2       1 <0>         0.4566
     24 O6          4.3255   -2.3245    5.8061 O.2       1 <0>        -0.4588
     25 O7          4.8951   -2.9327    7.8529 O.3       1 <0>        -0.3413
     26 C18         5.0226   -4.2766    7.3841 C.3       1 <0>         0.0962
     27 C19         6.0862   -5.0054    8.2078 C.3       1 <0>        -0.1178
     28 C20         7.4517   -4.3600    7.9630 C.3       1 <0>        -0.1121
     29 C21         8.5152   -5.0888    8.7868 C.3       1 <0>        -0.0815
     30 C22         9.8602   -4.4532    8.5457 C.ar      1 <0>        -0.0814
     31 C23        10.6662   -4.9093    7.5195 C.ar      1 <0>        -0.1188
     32 C24        11.8999   -4.3263    7.2983 C.ar      1 <0>        -0.1180
     33 C25        12.3274   -3.2868    8.1031 C.ar      1 <0>        -0.1257
     34 C26        11.5210   -2.8301    9.1287 C.ar      1 <0>        -0.1181
     35 C27        10.2854   -3.4103    9.3472 C.ar      1 <0>        -0.1180
     36 C28         3.6811   -4.9974    7.5311 C.3       1 <0>        -0.1318
     37 C29         2.6476   -4.3442    6.6113 C.3       1 <0>        -0.0971
     38 C30         1.3263   -5.0542    6.7561 C.ar      1 <0>        -0.1175
     39 C31         1.0202   -6.1395    5.9490 C.ar      1 <0>        -0.0794
     40 C32        -0.2071   -6.7617    6.1174 C.ar      1 <0>        -0.1698
     41 C33        -1.0787   -6.2831    7.0775 C.ar      1 <0>         0.0860
     42 N2         -0.7543   -5.2480    7.8271 N.ar      1 <0>        -0.4830
     43 C34         0.4067   -4.6355    7.6987 C.ar      1 <0>         0.0992
     44 H1         -1.3521    2.2884    2.1598 H         1 <0>         0.0598
     45 H2         -2.1560    1.9267    0.6135 H         1 <0>         0.1077
     46 H3         -1.8404    0.6195    1.7796 H         1 <0>         0.0606
     47 H4         -0.4306    0.7986    3.3044 H         1 <0>         0.1493
     48 H5          3.6327   -0.4998    3.8267 H         1 <0>         0.1485
     49 H6          2.0359    2.8708   -0.3454 H         1 <0>         0.0474
     50 H7          3.7179    2.3296   -0.1299 H         1 <0>         0.0472
     51 H8          2.9301    2.1757   -1.7185 H         1 <0>         0.0968
     52 H9          6.2538   -0.7649    1.6936 H         1 <0>         0.1056
     53 H10         5.4718    0.0989    3.0391 H         1 <0>         0.0551
     54 H11         4.9883   -1.5699    2.6522 H         1 <0>         0.0640
     55 H12         2.0884    1.7390    6.2549 H         1 <0>         0.0853
     56 H13         2.7015    1.6658    7.9271 H         1 <0>         0.0860
     57 H14         4.3552    2.0809    5.3937 H         1 <0>         0.0717
     58 H15         4.0343    3.2879    6.6627 H         1 <0>         0.0862
     59 H16         6.2727    2.2851    6.9683 H         1 <0>         0.0789
     60 H17         5.2004    1.8400    8.3172 H         1 <0>         0.0737
     61 H18         5.7736    0.1073    5.8701 H         1 <0>         0.0775
     62 H19         6.4854   -0.1224    7.4859 H         1 <0>         0.0896
     63 H20         4.2619   -0.5112    8.4573 H         1 <0>         0.1125
     64 H21         5.3179   -4.2689    6.3348 H         1 <0>         0.0844
     65 H22         5.8362   -4.9362    9.2665 H         1 <0>         0.0772
     66 H23         6.1211   -6.0534    7.9104 H         1 <0>         0.0844
     67 H24         7.7016   -4.4292    6.9044 H         1 <0>         0.0623
     68 H25         7.4168   -3.3120    8.2605 H         1 <0>         0.0687
     69 H26         8.2652   -5.0197    9.8455 H         1 <0>         0.0739
     70 H27         8.5501   -6.1369    8.4894 H         1 <0>         0.0725
     71 H28        10.3322   -5.7215    6.8907 H         1 <0>         0.1201
     72 H29        12.5299   -4.6831    6.4970 H         1 <0>         0.1211
     73 H30        13.2916   -2.8318    7.9307 H         1 <0>         0.1206
     74 H31        11.8551   -2.0182    9.7577 H         1 <0>         0.1212
     75 H32         9.6538   -3.0510   10.1462 H         1 <0>         0.1209
     76 H33         3.8000   -6.0458    7.2573 H         1 <0>         0.0751
     77 H34         3.3427   -4.9280    8.5649 H         1 <0>         0.0708
     78 H35         2.5287   -3.2959    6.8850 H         1 <0>         0.1265
     79 H36         2.9860   -4.4136    5.5774 H         1 <0>         0.0759
     80 H37         1.7212   -6.4914    5.2065 H         1 <0>         0.1300
     81 H38        -0.4789   -7.6095    5.5060 H         1 <0>         0.1328
     82 H39        -2.0368   -6.7622    7.2150 H         1 <0>         0.1533
     83 H40         0.6394   -3.7941    8.3345 H         1 <0>         0.1470
@<TRIPOS>BOND
     1    1    2 1
     2    1   44 1
     3    1   45 1
     4    1   46 1
     5    2    3 1
     6    3    8 ar
     7    3    4 ar
     8    4    5 ar
     9    4   47 1
    10    5    6 ar
    11    5   13 1
    12    6    7 ar
    13    6   48 1
    14    7    8 ar
    15    7   11 1
    16    8    9 1
    17    9   10 1
    18   10   49 1
    19   10   50 1
    20   10   51 1
    21   11   12 1
    22   12   52 1
    23   12   53 1
    24   12   54 1
    25   13   14 2
    26   13   15 1
    27   15   16 2
    28   15   17 am
    29   17   22 1
    30   17   18 1
    31   18   19 1
    32   18   55 1
    33   18   56 1
    34   19   20 1
    35   19   57 1
    36   19   58 1
    37   20   21 1
    38   20   59 1
    39   20   60 1
    40   21   22 1
    41   21   61 1
    42   21   62 1
    43   22   23 1
    44   22   63 1
    45   23   24 2
    46   23   25 1
    47   25   26 1
    48   26   27 1
    49   26   36 1
    50   26   64 1
    51   27   28 1
    52   27   65 1
    53   27   66 1
    54   28   29 1
    55   28   67 1
    56   28   68 1
    57   29   30 1
    58   29   69 1
    59   29   70 1
    60   30   35 ar
    61   30   31 ar
    62   31   32 ar
    63   31   71 1
    64   32   33 ar
    65   32   72 1
    66   33   34 ar
    67   33   73 1
    68   34   35 ar
    69   34   74 1
    70   35   75 1
    71   36   37 1
    72   36   76 1
    73   36   77 1
    74   37   38 1
    75   37   78 1
    76   37   79 1
    77   38   43 ar
    78   38   39 ar
    79   39   40 ar
    80   39   80 1
    81   40   41 ar
    82   40   81 1
    83   41   42 ar
    84   41   82 1
    85   42   43 ar
    86   43   83 1
@<TRIPOS>MOLECULE
CHEMBL150120__2
   83    86     0     0     0
SMALL
USER_CHARGES

@<TRIPOS>ATOM
      1 C1          3.6133    2.4265   -0.7504 C.3       1 <0>         0.0204
      2 O1          4.9975    2.2208   -0.4611 O.3       1 <0>        -0.2972
      3 C2          5.2995    1.6395    0.7307 C.ar      1 <0>         0.1401
      4 C3          4.2874    1.2724    1.5946 C.ar      1 <0>        -0.1661
      5 C4          4.5994    0.6731    2.8220 C.ar      1 <0>        -0.0957
      6 C5          5.9384    0.4488    3.1679 C.ar      1 <0>        -0.1797
      7 C6          6.9452    0.8185    2.2989 C.ar      1 <0>         0.1414
      8 C7          6.6307    1.4098    1.0759 C.ar      1 <0>         0.0718
      9 O2          7.6235    1.7672    0.2212 O.3       1 <0>        -0.3107
     10 C8          8.1544    3.0868    0.3588 C.3       1 <0>         0.0356
     11 O3          8.2452    0.6011    2.6338 O.3       1 <0>        -0.2950
     12 C9          8.4951   -0.0136    3.8994 C.3       1 <0>         0.0206
     13 C10         3.5240    0.2810    3.7453 C.2       1 <0>         0.4005
     14 O4          2.3732    0.5790    3.4983 O.2       1 <0>        -0.4059
     15 C11         3.8473   -0.4831    4.9857 C.2       1 <0>         0.4701
     16 O5          3.9216   -1.6940    4.9505 O.2       1 <0>        -0.4483
     17 N1          4.0566    0.1715    6.1451 N.am      1 <0>        -0.5920
     18 C12         3.9645    1.6366    6.2047 C.3       1 <0>         0.1079
     19 C13         2.9837    2.0242    7.3159 C.3       1 <0>        -0.1394
     20 C14         3.4201    1.3679    8.6277 C.3       1 <0>        -0.1171
     21 C15         3.3959   -0.1543    8.4714 C.3       1 <0>        -0.1261
     22 C16         4.3753   -0.5670    7.3747 C.3       1 <0>         0.1589
     23 C17         4.2522   -2.0474    7.1211 C.2       1 <0>         0.4416
     24 O6          3.3069   -2.4781    6.5042 O.2       1 <0>        -0.4368
     25 O7          5.1928   -2.8875    7.5807 O.3       1 <0>        -0.3444
     26 C18         5.0122   -4.2777    7.3039 C.3       1 <0>         0.0950
     27 C19         5.6429   -5.1070    8.4243 C.3       1 <0>        -0.1167
     28 C20         4.8901   -4.8536    9.7320 C.3       1 <0>        -0.1128
     29 C21         5.5208   -5.6829   10.8525 C.3       1 <0>        -0.0810
     30 C22         4.7793   -5.4333   12.1405 C.ar      1 <0>        -0.0816
     31 C23         5.1780   -4.4104   12.9804 C.ar      1 <0>        -0.1181
     32 C24         4.4978   -4.1815   14.1619 C.ar      1 <0>        -0.1183
     33 C25         3.4187   -4.9752   14.5032 C.ar      1 <0>        -0.1257
     34 C26         3.0195   -5.9975   13.6628 C.ar      1 <0>        -0.1179
     35 C27         3.6970   -6.2237   12.4793 C.ar      1 <0>        -0.1186
     36 C28         5.6834   -4.6241    5.9733 C.3       1 <0>        -0.1312
     37 C29         4.9711   -3.8890    4.8361 C.3       1 <0>        -0.0964
     38 C30         5.6321   -4.2302    3.5256 C.ar      1 <0>        -0.1169
     39 C31         6.6872   -3.4655    3.0514 C.ar      1 <0>        -0.0768
     40 C32         7.2648   -3.8164    1.8410 C.ar      1 <0>        -0.1666
     41 C33         6.7733   -4.9093    1.1519 C.ar      1 <0>         0.0876
     42 N2          5.7678   -5.6135    1.6332 N.ar      1 <0>        -0.4811
     43 C34         5.1983   -5.3125    2.7840 C.ar      1 <0>         0.0954
     44 H1          3.1753    3.0730    0.0101 H         1 <0>         0.0603
     45 H2          3.5125    2.8964   -1.7287 H         1 <0>         0.1084
     46 H3          3.0962    1.4669   -0.7532 H         1 <0>         0.0611
     47 H4          3.2563    1.4471    1.3249 H         1 <0>         0.1501
     48 H5          6.1826   -0.0126    4.1134 H         1 <0>         0.1386
     49 H6          7.3591    3.8162    0.2054 H         1 <0>         0.0477
     50 H7          8.5709    3.2083    1.3587 H         1 <0>         0.0476
     51 H8          8.9381    3.2423   -0.3827 H         1 <0>         0.0974
     52 H9          9.5696   -0.1290    4.0415 H         1 <0>         0.1093
     53 H10         8.0887    0.6124    4.6939 H         1 <0>         0.0586
     54 H11         8.0175   -0.9929    3.9282 H         1 <0>         0.0568
     55 H12         4.9469    2.0560    6.4218 H         1 <0>         0.0844
     56 H13         3.6045    2.0193    5.2497 H         1 <0>         0.0844
     57 H14         2.9787    3.1076    7.4351 H         1 <0>         0.0859
     58 H15         1.9827    1.6820    7.0532 H         1 <0>         0.0744
     59 H16         4.4307    1.6913    8.8770 H         1 <0>         0.0724
     60 H17         2.7378    1.6619    9.4254 H         1 <0>         0.0790
     61 H18         3.6842   -0.6214    9.4131 H         1 <0>         0.0891
     62 H19         2.3910   -0.4760    8.1978 H         1 <0>         0.0804
     63 H20         5.3920   -0.3313    7.6893 H         1 <0>         0.1112
     64 H21         3.9470   -4.5006    7.2423 H         1 <0>         0.0844
     65 H22         5.5839   -6.1654    8.1703 H         1 <0>         0.0845
     66 H23         6.6875   -4.8200    8.5449 H         1 <0>         0.0764
     67 H24         4.9491   -3.7953    9.9860 H         1 <0>         0.0686
     68 H25         3.8455   -5.1406    9.6114 H         1 <0>         0.0628
     69 H26         5.4618   -6.7413   10.5985 H         1 <0>         0.0725
     70 H27         6.5654   -5.3959   10.9731 H         1 <0>         0.0735
     71 H28         6.0211   -3.7903   12.7138 H         1 <0>         0.1207
     72 H29         4.8098   -3.3827   14.8185 H         1 <0>         0.1211
     73 H30         2.8878   -4.7967   15.4266 H         1 <0>         0.1206
     74 H31         2.1766   -6.6178   13.9296 H         1 <0>         0.1212
     75 H32         3.3828   -7.0201   11.8209 H         1 <0>         0.1204
     76 H33         6.7295   -4.3193    6.0038 H         1 <0>         0.0692
     77 H34         5.6230   -5.6993    5.8049 H         1 <0>         0.0768
     78 H35         3.9250   -4.1938    4.8056 H         1 <0>         0.0789
     79 H36         5.0315   -2.8138    5.0045 H         1 <0>         0.1209
     80 H37         7.0502   -2.6164    3.6115 H         1 <0>         0.1211
     81 H38         8.0881   -3.2431    1.4413 H         1 <0>         0.1326
     82 H39         7.2177   -5.1893    0.2082 H         1 <0>         0.1535
     83 H40         4.3803   -5.9160    3.1487 H         1 <0>         0.1506
@<TRIPOS>BOND
     1    1    2 1
     2    1   44 1
     3    1   45 1
     4    1   46 1
     5    2    3 1
     6    3    8 ar
     7    3    4 ar
     8    4    5 ar
     9    4   47 1
    10    5    6 ar
    11    5   13 1
    12    6    7 ar
    13    6   48 1
    14    7    8 ar
    15    7   11 1
    16    8    9 1
    17    9   10 1
    18   10   49 1
    19   10   50 1
    20   10   51 1
    21   11   12 1
    22   12   52 1
    23   12   53 1
    24   12   54 1
    25   13   14 2
    26   13   15 1
    27   15   16 2
    28   15   17 am
    29   17   22 1
    30   17   18 1
    31   18   19 1
    32   18   55 1
    33   18   56 1
    34   19   20 1
    35   19   57 1
    36   19   58 1
    37   20   21 1
    38   20   59 1
    39   20   60 1
    40   21   22 1
    41   21   61 1
    42   21   62 1
    43   22   23 1
    44   22   63 1
    45   23   24 2
    46   23   25 1
    47   25   26 1
    48   26   27 1
    49   26   36 1
    50   26   64 1
    51   27   28 1
    52   27   65 1
    53   27   66 1
    54   28   29 1
    55   28   67 1
    56   28   68 1
    57   29   30 1
    58   29   69 1
    59   29   70 1
    60   30   35 ar
    61   30   31 ar
    62   31   32 ar
    63   31   71 1
    64   32   33 ar
    65   32   72 1
    66   33   34 ar
    67   33   73 1
    68   34   35 ar
    69   34   74 1
    70   35   75 1
    71   36   37 1
    72   36   76 1
    73   36   77 1
    74   37   38 1
    75   37   78 1
    76   37   79 1
    77   38   43 ar
    78   38   39 ar
    79   39   40 ar
    80   39   80 1
    81   40   41 ar
    82   40   81 1
    83   41   42 ar
    84   41   82 1
    85   42   43 ar
    86   43   83 1
@<TRIPOS>MOLECULE
CHEMBL150120__3
   83    86     0     0     0
SMALL
USER_CHARGES

@<TRIPOS>ATOM
      1 C1          5.5570    2.2238   -0.7652 C.3       1 <0>         0.0204
      2 O1          6.8267    1.9576   -0.1658 O.3       1 <0>        -0.2974
      3 C2          6.8191    1.4018    1.0753 C.ar      1 <0>         0.1390
      4 C3          5.6193    1.1158    1.6953 C.ar      1 <0>        -0.1665
      5 C4          5.6125    0.5428    2.9738 C.ar      1 <0>        -0.0975
      6 C5          6.8244    0.2621    3.6184 C.ar      1 <0>        -0.1777
      7 C6          8.0203    0.5507    2.9923 C.ar      1 <0>         0.1447
      8 C7          8.0232    1.1161    1.7177 C.ar      1 <0>         0.0724
      9 O2          9.2016    1.3936    1.1025 O.3       1 <0>        -0.3101
     10 C8          9.7626    2.6882    1.3290 C.3       1 <0>         0.0357
     11 O3          9.1970    0.2786    3.6173 O.3       1 <0>        -0.2919
     12 C9          9.1203   -0.3054    4.9192 C.3       1 <0>         0.0207
     13 C10         4.3365    0.2372    3.6377 C.2       1 <0>         0.4025
     14 O4          3.2902    0.5953    3.1363 O.2       1 <0>        -0.4049
     15 C11         4.3274   -0.5131    4.9276 C.2       1 <0>         0.4901
     16 O5          4.3186   -1.7268    4.9237 O.2       1 <0>        -0.4728
     17 N1          4.3291    0.1571    6.0970 N.am      1 <0>        -0.5921
     18 C12         4.2786    1.6253    6.1185 C.3       1 <0>         0.1064
     19 C13         3.1139    2.0656    7.0108 C.3       1 <0>        -0.1392
     20 C14         3.2622    1.4216    8.3911 C.3       1 <0>        -0.1171
     21 C15         3.2156   -0.1019    8.2528 C.3       1 <0>        -0.1280
     22 C16         4.3753   -0.5670    7.3747 C.3       1 <0>         0.1555
     23 C17         4.2522   -2.0474    7.1211 C.2       1 <0>         0.4654
     24 O6          3.3069   -2.4781    6.5042 O.2       1 <0>        -0.4627
     25 O7          5.1928   -2.8875    7.5807 O.3       1 <0>        -0.3443
     26 C18         5.0122   -4.2777    7.3039 C.3       1 <0>         0.0936
     27 C19         6.3785   -4.9572    7.1926 C.3       1 <0>        -0.1152
     28 C20         7.1294   -4.3977    5.9826 C.3       1 <0>        -0.1099
     29 C21         8.4956   -5.0773    5.8713 C.3       1 <0>        -0.0809
     30 C22         9.2352   -4.5262    4.6794 C.ar      1 <0>        -0.0811
     31 C23         9.0902   -5.1214    3.4403 C.ar      1 <0>        -0.1185
     32 C24         9.7685   -4.6159    2.3470 C.ar      1 <0>        -0.1158
     33 C25        10.5915   -3.5149    2.4929 C.ar      1 <0>        -0.1203
     34 C26        10.7359   -2.9191    3.7319 C.ar      1 <0>        -0.1111
     35 C27        10.0541   -3.4220    4.8242 C.ar      1 <0>        -0.1237
     36 C28         4.2122   -4.9236    8.4368 C.3       1 <0>        -0.1327
     37 C29         2.8021   -4.3306    8.4679 C.3       1 <0>        -0.0731
     38 C30         2.0141   -4.9668    9.5838 C.ar      1 <0>        -0.1307
     39 C31         1.2766   -6.1186    9.3545 C.ar      1 <0>        -0.0740
     40 C32         0.5670   -6.6689   10.4106 C.ar      1 <0>        -0.1685
     41 C33         0.6178   -6.0557   11.6484 C.ar      1 <0>         0.0914
     42 N2          1.3296   -4.9607   11.8298 N.ar      1 <0>        -0.4824
     43 C34         2.0218   -4.4131   10.8498 C.ar      1 <0>         0.0995
     44 H1          4.9971    2.9169   -0.1373 H         1 <0>         0.0602
     45 H2          5.7059    2.6653   -1.7506 H         1 <0>         0.1081
     46 H3          4.9998    1.2924   -0.8648 H         1 <0>         0.0610
     47 H4          4.6871    1.3339    1.1956 H         1 <0>         0.1501
     48 H5          6.8229   -0.1793    4.6041 H         1 <0>         0.1395
     49 H6          9.0653    3.4517    0.9842 H         1 <0>         0.0473
     50 H7          9.9499    2.8217    2.3944 H         1 <0>         0.0476
     51 H8         10.7005    2.7786    0.7810 H         1 <0>         0.0968
     52 H9         10.1269   -0.4707    5.3032 H         1 <0>         0.1062
     53 H10         8.5822    0.3666    5.5877 H         1 <0>         0.0553
     54 H11         8.5932   -1.2576    4.8598 H         1 <0>         0.0627
     55 H12         5.2138    2.0173    6.5184 H         1 <0>         0.0855
     56 H13         4.1258    2.0005    5.1065 H         1 <0>         0.0852
     57 H14         3.1237    3.1508    7.1127 H         1 <0>         0.0867
     58 H15         2.1721    1.7504    6.5616 H         1 <0>         0.0745
     59 H16         4.2154    1.7174    8.8294 H         1 <0>         0.0727
     60 H17         2.4480    1.7527    9.0358 H         1 <0>         0.0796
     61 H18         3.2978   -0.5594    9.2387 H         1 <0>         0.0880
     62 H19         2.2728   -0.3966    7.7919 H         1 <0>         0.0830
     63 H20         5.3186   -0.3577    7.8793 H         1 <0>         0.1097
     64 H21         4.4711   -4.3939    6.3648 H         1 <0>         0.0894
     65 H22         6.9545   -4.7656    8.0979 H         1 <0>         0.0759
     66 H23         6.2411   -6.0316    7.0699 H         1 <0>         0.0837
     67 H24         6.5534   -4.5893    5.0772 H         1 <0>         0.0642
     68 H25         7.2668   -3.3234    6.1052 H         1 <0>         0.0652
     69 H26         9.0716   -4.8857    6.7766 H         1 <0>         0.0725
     70 H27         8.3582   -6.1516    5.7486 H         1 <0>         0.0718
     71 H28         8.4471   -5.9816    3.3263 H         1 <0>         0.1186
     72 H29         9.6558   -5.0814    1.3790 H         1 <0>         0.1197
     73 H30        11.1221   -3.1204    1.6389 H         1 <0>         0.1202
     74 H31        11.3791   -2.0591    3.8459 H         1 <0>         0.1206
     75 H32        10.1640   -2.9543    5.7915 H         1 <0>         0.1176
     76 H33         4.1504   -5.9991    8.2707 H         1 <0>         0.0814
     77 H34         4.7085   -4.7308    9.3879 H         1 <0>         0.0753
     78 H35         2.8639   -3.2551    8.6340 H         1 <0>         0.0688
     79 H36         2.3058   -4.5235    7.5168 H         1 <0>         0.0831
     80 H37         1.2552   -6.5758    8.3762 H         1 <0>         0.1332
     81 H38        -0.0184   -7.5652   10.2681 H         1 <0>         0.1353
     82 H39         0.0679   -6.4781   12.4763 H         1 <0>         0.1555
     83 H40         2.5975   -3.5189   11.0377 H         1 <0>         0.1511
@<TRIPOS>BOND
     1    1    2 1
     2    1   44 1
     3    1   45 1
     4    1   46 1
     5    2    3 1
     6    3    8 ar
     7    3    4 ar
     8    4    5 ar
     9    4   47 1
    10    5    6 ar
    11    5   13 1
    12    6    7 ar
    13    6   48 1
    14    7    8 ar
    15    7   11 1
    16    8    9 1
    17    9   10 1
    18   10   49 1
    19   10   50 1
    20   10   51 1
    21   11   12 1
    22   12   52 1
    23   12   53 1
    24   12   54 1
    25   13   14 2
    26   13   15 1
    27   15   16 2
    28   15   17 am
    29   17   22 1
    30   17   18 1
    31   18   19 1
    32   18   55 1
    33   18   56 1
    34   19   20 1
    35   19   57 1
    36   19   58 1
    37   20   21 1
    38   20   59 1
    39   20   60 1
    40   21   22 1
    41   21   61 1
    42   21   62 1
    43   22   23 1
    44   22   63 1
    45   23   24 2
    46   23   25 1
    47   25   26 1
    48   26   27 1
    49   26   36 1
    50   26   64 1
    51   27   28 1
    52   27   65 1
    53   27   66 1
    54   28   29 1
    55   28   67 1
    56   28   68 1
    57   29   30 1
    58   29   69 1
    59   29   70 1
    60   30   35 ar
    61   30   31 ar
    62   31   32 ar
    63   31   71 1
    64   32   33 ar
    65   32   72 1
    66   33   34 ar
    67   33   73 1
    68   34   35 ar
    69   34   74 1
    70   35   75 1
    71   36   37 1
    72   36   76 1
    73   36   77 1
    74   37   38 1
    75   37   78 1
    76   37   79 1
    77   38   43 ar
    78   38   39 ar
    79   39   40 ar
    80   39   80 1
    81   40   41 ar
    82   40   81 1
    83   41   42 ar
    84   41   82 1
    85   42   43 ar
    86   43   83 1
@<TRIPOS>MOLECULE
CHEMBL371424
   57    61     0     0     0
SMALL
USER_CHARGES

@<TRIPOS>ATOM
      1 C1         -0.0173    1.4248    0.0099 C.3       1 <0>         0.0252
      2 O1          0.0021   -0.0041    0.0020 O.3       1 <0>        -0.3100
      3 C2          0.6053   -0.6066   -1.0549 C.ar      1 <0>         0.1795
      4 C3          0.6940   -1.9912   -1.1142 C.ar      1 <0>        -0.1789
      5 C4          1.2675   -2.5930   -2.2109 C.ar      1 <0>         0.0022
      6 C5          1.7397   -1.8387   -3.2791 C.ar      1 <0>        -0.1670
      7 C6          1.7575   -0.4622   -3.1638 C.ar      1 <0>         0.1911
      8 C7          1.1677    0.1545   -2.0647 C.ar      1 <0>        -0.3050
      9 O2          2.4012    0.3255   -4.0663 O.3       1 <0>        -0.3100
     10 C8          2.3530    1.7367   -3.8466 C.3       1 <0>         0.0228
     11 C9          2.1692   -2.5751   -4.5166 C.3       1 <0>         0.2031
     12 C10         2.1597   -1.6838   -5.7479 C.3       1 <0>         0.1550
     13 C11         0.8453   -0.9447   -5.9439 C.3       1 <0>        -0.1169
     14 C12        -0.2925   -1.8900   -6.3232 C.3       1 <0>        -0.1289
     15 C13         0.0881   -2.6898   -7.5730 C.3       1 <0>        -0.1217
     16 C14         1.3476   -3.5113   -7.2278 C.3       1 <0>         0.1440
     17 N1          2.4145   -2.5332   -6.9329 N.pl3     1 <0>        -1.0013
     18 S1          3.7859   -2.3924   -7.8486 S.o2      1 <0>         2.6927
     19 O3          3.4682   -2.9015   -9.1367 O.2       1 <0>        -0.9416
     20 O4          4.2731   -1.0724   -7.6501 O.2       1 <0>        -0.9399
     21 C15         4.9871   -3.4815   -7.1589 C.ar      1 <0>        -0.6767
     22 C16         5.8414   -3.0310   -6.1696 C.ar      1 <0>        -0.0059
     23 C17         6.7838   -3.8850   -5.6282 C.ar      1 <0>        -0.1302
     24 C18         6.8726   -5.1899   -6.0757 C.ar      1 <0>        -0.0337
     25 C19         6.0179   -5.6411   -7.0650 C.ar      1 <0>        -0.1118
     26 C20         5.0712   -4.7875   -7.6029 C.ar      1 <0>         0.0095
     27 Br1         6.1392   -7.4259   -7.6780 Br        1 <0>        -0.0316
     28 C21         1.0471   -4.2458   -5.9476 C.2       1 <0>         0.5140
     29 O5          0.4641   -5.3080   -6.0183 O.2       1 <0>        -0.5323
     30 N2          1.3879   -3.7900   -4.7256 N.am      1 <0>        -0.5934
     31 C22         0.9204   -4.6112   -3.5991 C.3       1 <0>         0.1185
     32 C23         1.4358   -4.0890   -2.2664 C.3       1 <0>        -0.0929
     33 H1          1.0053    1.8021    0.0021 H         1 <0>         0.0571
     34 H2         -0.5445    1.7859   -0.8732 H         1 <0>         0.0572
     35 H3         -0.5275    1.7763    0.9067 H         1 <0>         0.1044
     36 H4          0.3128   -2.5953   -0.3035 H         1 <0>         0.1373
     37 H5          1.1486    1.2331   -2.0037 H         1 <0>         0.1402
     38 H6          1.3154    2.0703   -3.8541 H         1 <0>         0.0576
     39 H7          2.8026    1.9696   -2.8814 H         1 <0>         0.0579
     40 H8          2.9043    2.2464   -4.6367 H         1 <0>         0.1075
     41 H9          3.2117   -2.8917   -4.3581 H         1 <0>         0.0752
     42 H10         2.9810   -0.9656   -5.6805 H         1 <0>         0.1297
     43 H11         0.5641   -0.4160   -5.0348 H         1 <0>         0.0821
     44 H12         0.9689   -0.2081   -6.7449 H         1 <0>         0.0756
     45 H13        -0.4988   -2.5680   -5.4974 H         1 <0>         0.0683
     46 H14        -1.1900   -1.3034   -6.5336 H         1 <0>         0.0733
     47 H15        -0.7262   -3.3602   -7.8460 H         1 <0>         0.0884
     48 H16         0.3036   -2.0110   -8.3967 H         1 <0>         0.0883
     49 H17         1.6235   -4.1895   -8.0326 H         1 <0>         0.1417
     50 H18         5.7726   -2.0115   -5.8200 H         1 <0>         0.1476
     51 H19         7.4512   -3.5325   -4.8557 H         1 <0>         0.1450
     52 H20         7.6094   -5.8569   -5.6531 H         1 <0>         0.1433
     53 H21         4.4011   -5.1405   -8.3728 H         1 <0>         0.1493
     54 H22        -0.1698   -4.6123   -3.5867 H         1 <0>         0.0730
     55 H23         1.2704   -5.6356   -3.7388 H         1 <0>         0.0824
     56 H24         2.4932   -4.3368   -2.1604 H         1 <0>         0.0908
     57 H25         0.8758   -4.5477   -1.4513 H         1 <0>         0.0988
@<TRIPOS>BOND
     1    1    2 1
     2    1   33 1
     3    1   34 1
     4    1   35 1
     5    2    3 1
     6    3    8 ar
     7    3    4 ar
     8    4    5 ar
     9    4   36 1
    10    5   32 1
    11    5    6 ar
    12    6    7 ar
    13    6   11 1
    14    7    8 ar
    15    7    9 1
    16    8   37 1
    17    9   10 1
    18   10   38 1
    19   10   39 1
    20   10   40 1
    21   11   30 1
    22   11   12 1
    23   11   41 1
    24   12   17 1
    25   12   13 1
    26   12   42 1
    27   13   14 1
    28   13   43 1
    29   13   44 1
    30   14   15 1
    31   14   45 1
    32   14   46 1
    33   15   16 1
    34   15   47 1
    35   15   48 1
    36   16   17 1
    37   16   28 1
    38   16   49 1
    39   17   18 1
    40   18   19 2
    41   18   20 2
    42   18   21 1
    43   21   26 ar
    44   21   22 ar
    45   22   23 ar
    46   22   50 1
    47   23   24 ar
    48   23   51 1
    49   24   25 ar
    50   24   52 1
    51   25   26 ar
    52   25   27 1
    53   26   53 1
    54   28   29 2
    55   28   30 am
    56   30   31 1
    57   31   32 1
    58   31   54 1
    59   31   55 1
    60   32   56 1
    61   32   57 1
@<TRIPOS>MOLECULE
CHEMBL371424__1
   57    61     0     0     0
SMALL
USER_CHARGES

@<TRIPOS>ATOM
      1 C1         -0.0173    1.4248    0.0099 C.3       1 <0>         0.0255
      2 O1          0.0021   -0.0041    0.0020 O.3       1 <0>        -0.3118
      3 C2          0.6058   -0.6071   -1.0557 C.ar      1 <0>         0.1740
      4 C3          0.6563   -1.9891   -1.1311 C.ar      1 <0>        -0.1879
      5 C4          1.2735   -2.6171   -2.2046 C.ar      1 <0>         0.0086
      6 C5          1.8472   -1.8549   -3.1996 C.ar      1 <0>        -0.1700
      7 C6          1.7909   -0.4654   -3.1313 C.ar      1 <0>         0.1829
      8 C7          1.1677    0.1592   -2.0648 C.ar      1 <0>        -0.2906
      9 O2          2.3470    0.2822   -4.1206 O.3       1 <0>        -0.3061
     10 C8          2.2549    1.7023   -3.9903 C.3       1 <0>         0.0167
     11 C9          2.5584   -2.4827   -4.3680 C.3       1 <0>         0.2014
     12 C10         2.2655   -1.7287   -5.6531 C.3       1 <0>         0.1285
     13 C11         3.5418   -1.6476   -6.5007 C.3       1 <0>        -0.1260
     14 C12         3.9869   -3.0634   -6.8739 C.3       1 <0>        -0.1276
     15 C13         2.8831   -3.7593   -7.6729 C.3       1 <0>        -0.1249
     16 C14         1.6087   -3.8298   -6.8232 C.3       1 <0>         0.1375
     17 N1          1.2449   -2.4497   -6.4342 N.pl3     1 <0>        -0.9927
     18 S1         -0.2053   -1.7644   -6.8463 S.o2      1 <0>         2.6895
     19 O3         -1.1128   -2.8356   -7.0659 O.2       1 <0>        -0.9448
     20 O4         -0.4541   -0.7379   -5.8957 O.2       1 <0>        -0.9379
     21 C15         0.0186   -0.9671   -8.4015 C.ar      1 <0>        -0.6731
     22 C16         0.4285    0.3525   -8.4491 C.ar      1 <0>        -0.0045
     23 C17         0.6043    0.9785   -9.6688 C.ar      1 <0>        -0.1303
     24 C18         0.3702    0.2854  -10.8418 C.ar      1 <0>        -0.0344
     25 C19        -0.0395   -1.0348  -10.7947 C.ar      1 <0>        -0.1120
     26 C20        -0.2102   -1.6625   -9.5737 C.ar      1 <0>         0.0079
     27 Br1        -0.3605   -1.9832  -12.3988 Br        1 <0>        -0.0317
     28 C21         1.9162   -4.5671   -5.5417 C.2       1 <0>         0.5271
     29 O5          1.8391   -5.7772   -5.5163 O.2       1 <0>        -0.5309
     30 N2          2.2733   -3.9055   -4.4316 N.am      1 <0>        -0.5938
     31 C22         2.3613   -4.6581   -3.1618 C.3       1 <0>         0.1037
     32 C23         1.2759   -4.1227   -2.2295 C.3       1 <0>        -0.1006
     33 H1          1.0053    1.8021    0.0021 H         1 <0>         0.0561
     34 H2         -0.5445    1.7859   -0.8732 H         1 <0>         0.0571
     35 H3         -0.5275    1.7763    0.9067 H         1 <0>         0.1033
     36 H4          0.2115   -2.5841   -0.3472 H         1 <0>         0.1347
     37 H5          1.1231    1.2373   -2.0172 H         1 <0>         0.1390
     38 H6          1.2060    1.9967   -3.9550 H         1 <0>         0.0615
     39 H7          2.7514    2.0158   -3.0720 H         1 <0>         0.0585
     40 H8          2.7372    2.1775   -4.8446 H         1 <0>         0.1039
     41 H9          3.6275   -2.3788   -4.1825 H         1 <0>         0.0884
     42 H10         1.9063   -0.7271   -5.4167 H         1 <0>         0.1530
     43 H11         3.3410   -1.0778   -7.4080 H         1 <0>         0.0759
     44 H12         4.3289   -1.1572   -5.9280 H         1 <0>         0.0846
     45 H13         4.8932   -3.0112   -7.4773 H         1 <0>         0.0757
     46 H14         4.1896   -3.6309   -5.9656 H         1 <0>         0.0685
     47 H15         2.6824   -3.1950   -8.5836 H         1 <0>         0.0826
     48 H16         3.2032   -4.7683   -7.9328 H         1 <0>         0.0883
     49 H17         0.7985   -4.3058   -7.3755 H         1 <0>         0.1388
     50 H18         0.6112    0.8944   -7.5329 H         1 <0>         0.1460
     51 H19         0.9242    2.0093   -9.7055 H         1 <0>         0.1447
     52 H20         0.5068    0.7748  -11.7948 H         1 <0>         0.1434
     53 H21        -0.5264   -2.6945   -9.5365 H         1 <0>         0.1494
     54 H22         2.1973   -5.7193   -3.3489 H         1 <0>         0.1089
     55 H23         3.3424   -4.5088   -2.7109 H         1 <0>         0.0809
     56 H24         1.4548   -4.4964   -1.2213 H         1 <0>         0.0969
     57 H25         0.3037   -4.4759   -2.5731 H         1 <0>         0.0887
@<TRIPOS>BOND
     1    1    2 1
     2    1   33 1
     3    1   34 1
     4    1   35 1
     5    2    3 1
     6    3    8 ar
     7    3    4 ar
     8    4    5 ar
     9    4   36 1
    10    5   32 1
    11    5    6 ar
    12    6    7 ar
    13    6   11 1
    14    7    8 ar
    15    7    9 1
    16    8   37 1
    17    9   10 1
    18   10   38 1
    19   10   39 1
    20   10   40 1
    21   11   30 1
    22   11   12 1
    23   11   41 1
    24   12   17 1
    25   12   13 1
    26   12   42 1
    27   13   14 1
    28   13   43 1
    29   13   44 1
    30   14   15 1
    31   14   45 1
    32   14   46 1
    33   15   16 1
    34   15   47 1
    35   15   48 1
    36   16   17 1
    37   16   28 1
    38   16   49 1
    39   17   18 1
    40   18   19 2
    41   18   20 2
    42   18   21 1
    43   21   26 ar
    44   21   22 ar
    45   22   23 ar
    46   22   50 1
    47   23   24 ar
    48   23   51 1
    49   24   25 ar
    50   24   52 1
    51   25   26 ar
    52   25   27 1
    53   26   53 1
    54   28   29 2
    55   28   30 am
    56   30   31 1
    57   31   32 1
    58   31   54 1
    59   31   55 1
    60   32   56 1
    61   32   57 1
@<TRIPOS>MOLECULE
CHEMBL371424__2
   57    61     0     0     0
SMALL
USER_CHARGES

@<TRIPOS>ATOM
      1 C1         -0.0173    1.4248    0.0099 C.3       1 <0>         0.0248
      2 O1          0.0021   -0.0041    0.0020 O.3       1 <0>        -0.3112
      3 C2          0.6058   -0.6071   -1.0557 C.ar      1 <0>         0.1748
      4 C3          0.6564   -1.9891   -1.1314 C.ar      1 <0>        -0.1861
      5 C4          1.2678   -2.6171   -2.2081 C.ar      1 <0>         0.0144
      6 C5          1.8230   -1.8553   -3.2138 C.ar      1 <0>        -0.1697
      7 C6          1.7806   -0.4657   -3.1376 C.ar      1 <0>         0.1704
      8 C7          1.1678    0.1590   -2.0650 C.ar      1 <0>        -0.2957
      9 O2          2.3394    0.2821   -4.1252 O.3       1 <0>        -0.3039
     10 C8          2.2617    1.7022   -3.9866 C.3       1 <0>         0.0182
     11 C9          2.4698   -2.4831   -4.4190 C.3       1 <0>         0.1958
     12 C10         3.7212   -1.7235   -4.8227 C.3       1 <0>         0.1301
     13 C11         3.7986   -1.6419   -6.3528 C.3       1 <0>        -0.1226
     14 C12         3.8982   -3.0570   -6.9267 C.3       1 <0>        -0.1290
     15 C13         5.1514   -3.7479   -6.3854 C.3       1 <0>        -0.1215
     16 C14         5.0717   -3.8188   -4.8559 C.3       1 <0>         0.1380
     17 N1          4.9171   -2.4393   -4.3441 N.pl3     1 <0>        -0.9923
     18 S1          6.0094   -1.7492   -3.3083 S.o2      1 <0>         2.6904
     19 O3          7.2394   -2.4347   -3.4994 O.2       1 <0>        -0.9447
     20 O4          5.8884   -0.3425   -3.4685 O.2       1 <0>        -0.9417
     21 C15         5.4774   -2.1170   -1.6693 C.ar      1 <0>        -0.6732
     22 C16         4.6147   -1.2583   -1.0136 C.ar      1 <0>         0.0029
     23 C17         4.1970   -1.5462    0.2721 C.ar      1 <0>        -0.1254
     24 C18         4.6417   -2.6930    0.9031 C.ar      1 <0>        -0.0321
     25 C19         5.5044   -3.5525    0.2474 C.ar      1 <0>        -0.1106
     26 C20         5.9180   -3.2666   -1.0414 C.ar      1 <0>         0.0098
     27 Br1         6.1136   -5.1211    1.1102 Br        1 <0>        -0.0327
     28 C21         3.8165   -4.5616   -4.4653 C.2       1 <0>         0.5218
     29 O5          3.8388   -5.7717   -4.3874 O.2       1 <0>        -0.5309
     30 N2          2.6775   -3.9043   -4.2031 N.am      1 <0>        -0.5917
     31 C22         1.5463   -4.6609   -3.6246 C.3       1 <0>         0.1037
     32 C23         1.3001   -4.1226   -2.2162 C.3       1 <0>        -0.0993
     33 H1          1.0053    1.8021    0.0021 H         1 <0>         0.0568
     34 H2         -0.5445    1.7859   -0.8732 H         1 <0>         0.0571
     35 H3         -0.5275    1.7763    0.9067 H         1 <0>         0.1038
     36 H4          0.2163   -2.5841   -0.3449 H         1 <0>         0.1332
     37 H5          1.1314    1.2371   -2.0128 H         1 <0>         0.1402
     38 H6          1.2159    2.0066   -3.9450 H         1 <0>         0.0587
     39 H7          2.7653    2.0058   -3.0689 H         1 <0>         0.0599
     40 H8          2.7447    2.1776   -4.8404 H         1 <0>         0.1078
     41 H9          1.7656   -2.3848   -5.2451 H         1 <0>         0.0889
     42 H10         3.6968   -0.7221   -4.3929 H         1 <0>         0.1522
     43 H11         2.9023   -1.1551   -6.7374 H         1 <0>         0.0847
     44 H12         4.6788   -1.0683   -6.6430 H         1 <0>         0.0800
     45 H13         3.0160   -3.6282   -6.6378 H         1 <0>         0.0669
     46 H14         3.9545   -3.0041   -8.0140 H         1 <0>         0.0772
     47 H15         5.2156   -4.7566   -6.7934 H         1 <0>         0.0884
     48 H16         6.0347   -3.1801   -6.6776 H         1 <0>         0.0871
     49 H17         5.9624   -4.2909   -4.4414 H         1 <0>         0.1385
     50 H18         4.2673   -0.3621   -1.5060 H         1 <0>         0.1380
     51 H19         3.5233   -0.8750    0.7841 H         1 <0>         0.1397
     52 H20         4.3159   -2.9176    1.9080 H         1 <0>         0.1420
     53 H21         6.5887   -3.9394   -1.5552 H         1 <0>         0.1477
     54 H22         0.6551   -4.5180   -4.2358 H         1 <0>         0.0801
     55 H23         1.7965   -5.7207   -3.5767 H         1 <0>         0.1082
     56 H24         2.0975   -4.4667   -1.5576 H         1 <0>         0.0865
     57 H25         0.3464   -4.5026   -1.8500 H         1 <0>         0.0954
@<TRIPOS>BOND
     1    1    2 1
     2    1   33 1
     3    1   34 1
     4    1   35 1
     5    2    3 1
     6    3    8 ar
     7    3    4 ar
     8    4    5 ar
     9    4   36 1
    10    5   32 1
    11    5    6 ar
    12    6    7 ar
    13    6   11 1
    14    7    8 ar
    15    7    9 1
    16    8   37 1
    17    9   10 1
    18   10   38 1
    19   10   39 1
    20   10   40 1
    21   11   30 1
    22   11   12 1
    23   11   41 1
    24   12   17 1
    25   12   13 1
    26   12   42 1
    27   13   14 1
    28   13   43 1
    29   13   44 1
    30   14   15 1
    31   14   45 1
    32   14   46 1
    33   15   16 1
    34   15   47 1
    35   15   48 1
    36   16   17 1
    37   16   28 1
    38   16   49 1
    39   17   18 1
    40   18   19 2
    41   18   20 2
    42   18   21 1
    43   21   26 ar
    44   21   22 ar
    45   22   23 ar
    46   22   50 1
    47   23   24 ar
    48   23   51 1
    49   24   25 ar
    50   24   52 1
    51   25   26 ar
    52   25   27 1
    53   26   53 1
    54   28   29 2
    55   28   30 am
    56   30   31 1
    57   31   32 1
    58   31   54 1
    59   31   55 1
    60   32   56 1
    61   32   57 1
@<TRIPOS>MOLECULE
CHEMBL371424__3
   57    61     0     0     0
SMALL
USER_CHARGES

@<TRIPOS>ATOM
      1 C1         -0.0173    1.4248    0.0099 C.3       1 <0>         0.0254
      2 O1          0.0021   -0.0041    0.0020 O.3       1 <0>        -0.3100
      3 C2          0.6055   -0.6068   -1.0552 C.ar      1 <0>         0.1781
      4 C3          0.6374   -1.9917   -1.1461 C.ar      1 <0>        -0.1784
      5 C4          1.2784   -2.5959   -2.2057 C.ar      1 <0>         0.0022
      6 C5          1.9280   -1.8416   -3.1767 C.ar      1 <0>        -0.1616
      7 C6          1.8155   -0.4630   -3.1330 C.ar      1 <0>         0.1894
      8 C7          1.1684    0.1530   -2.0658 C.ar      1 <0>        -0.3046
      9 O2          2.2737    0.3307   -4.1370 O.3       1 <0>        -0.3108
     10 C8          2.1013    1.7405   -3.9794 C.3       1 <0>         0.0225
     11 C9          2.7357   -2.5722   -4.2093 C.3       1 <0>         0.2024
     12 C10         3.7899   -1.6814   -4.8523 C.3       1 <0>         0.1566
     13 C11         4.7015   -1.0114   -3.8380 C.3       1 <0>        -0.1177
     14 C12         5.6660   -1.9910   -3.1749 C.3       1 <0>        -0.1265
     15 C13         6.4492   -2.7693   -4.2380 C.3       1 <0>        -0.1258
     16 C14         5.4157   -3.5488   -5.0792 C.3       1 <0>         0.1418
     17 N1          4.5984   -2.5248   -5.7610 N.pl3     1 <0>        -1.0026
     18 S1          4.5831   -2.3287   -7.4042 S.o2      1 <0>         2.6922
     19 O3          4.9761   -3.5735   -7.9655 O.2       1 <0>        -0.9424
     20 O4          3.3486   -1.7033   -7.7270 O.2       1 <0>        -0.9403
     21 C15         5.8522   -1.1733   -7.8029 C.ar      1 <0>        -0.6726
     22 C16         5.5690    0.1795   -7.8390 C.ar      1 <0>        -0.0043
     23 C17         6.5642    1.0863   -8.1517 C.ar      1 <0>        -0.1306
     24 C18         7.8433    0.6409   -8.4284 C.ar      1 <0>        -0.0342
     25 C19         8.1272   -0.7122   -8.3919 C.ar      1 <0>        -0.1125
     26 C20         7.1320   -1.6190   -8.0738 C.ar      1 <0>         0.0088
     27 Br1         9.8766   -1.3220   -8.7710 Br        1 <0>        -0.0321
     28 C21         4.5235   -4.2679   -4.1003 C.2       1 <0>         0.5196
     29 O5          4.8995   -5.3344   -3.6577 O.2       1 <0>        -0.5326
     30 N2          3.3316   -3.7952   -3.6818 N.am      1 <0>        -0.5950
     31 C22         2.6607   -4.6021   -2.6527 C.3       1 <0>         0.1181
     32 C23         1.2579   -4.0941   -2.3561 C.3       1 <0>        -0.0941
     33 H1          1.0053    1.8021    0.0021 H         1 <0>         0.0566
     34 H2         -0.5445    1.7859   -0.8732 H         1 <0>         0.0569
     35 H3         -0.5275    1.7763    0.9067 H         1 <0>         0.1043
     36 H4          0.1643   -2.5981   -0.3865 H         1 <0>         0.1377
     37 H5          1.1039    1.2316   -2.0310 H         1 <0>         0.1398
     38 H6          1.0395    1.9687   -3.8871 H         1 <0>         0.0588
     39 H7          2.6236    2.0724   -3.0821 H         1 <0>         0.0573
     40 H8          2.5094    2.2559   -4.8489 H         1 <0>         0.1050
     41 H9          2.0422   -2.8744   -5.0096 H         1 <0>         0.0819
     42 H10         3.2995   -0.9251   -5.4703 H         1 <0>         0.1280
     43 H11         5.2829   -0.2324   -4.3395 H         1 <0>         0.0715
     44 H12         4.1035   -0.5370   -3.0561 H         1 <0>         0.0809
     45 H13         6.3715   -1.4328   -2.5523 H         1 <0>         0.0716
     46 H14         5.1148   -2.6832   -2.5420 H         1 <0>         0.0690
     47 H15         6.9966   -2.0763   -4.8755 H         1 <0>         0.0837
     48 H16         7.1383   -3.4639   -3.7599 H         1 <0>         0.0888
     49 H17         5.8922   -4.2318   -5.7790 H         1 <0>         0.1451
     50 H18         4.5697    0.5278   -7.6232 H         1 <0>         0.1473
     51 H19         6.3424    2.1429   -8.1802 H         1 <0>         0.1445
     52 H20         8.6207    1.3495   -8.6734 H         1 <0>         0.1430
     53 H21         7.3542   -2.6754   -8.0415 H         1 <0>         0.1502
     54 H22         2.5964   -5.6351   -3.0021 H         1 <0>         0.0846
     55 H23         3.2541   -4.5795   -1.7374 H         1 <0>         0.0722
     56 H24         0.8948   -4.5450   -1.4310 H         1 <0>         0.0994
     57 H25         0.5885   -4.3662   -3.1749 H         1 <0>         0.0934
@<TRIPOS>BOND
     1    1    2 1
     2    1   33 1
     3    1   34 1
     4    1   35 1
     5    2    3 1
     6    3    8 ar
     7    3    4 ar
     8    4    5 ar
     9    4   36 1
    10    5   32 1
    11    5    6 ar
    12    6    7 ar
    13    6   11 1
    14    7    8 ar
    15    7    9 1
    16    8   37 1
    17    9   10 1
    18   10   38 1
    19   10   39 1
    20   10   40 1
    21   11   30 1
    22   11   12 1
    23   11   41 1
    24   12   17 1
    25   12   13 1
    26   12   42 1
    27   13   14 1
    28   13   43 1
    29   13   44 1
    30   14   15 1
    31   14   45 1
    32   14   46 1
    33   15   16 1
    34   15   47 1
    35   15   48 1
    36   16   17 1
    37   16   28 1
    38   16   49 1
    39   17   18 1
    40   18   19 2
    41   18   20 2
    42   18   21 1
    43   21   26 ar
    44   21   22 ar
    45   22   23 ar
    46   22   50 1
    47   23   24 ar
    48   23   51 1
    49   24   25 ar
    50   24   52 1
    51   25   26 ar
    52   25   27 1
    53   26   53 1
    54   28   29 2
    55   28   30 am
    56   30   31 1
    57   31   32 1
    58   31   54 1
    59   31   55 1
    60   32   56 1
    61   32   57 1
@<TRIPOS>MOLECULE
CHEMBL119228
   55    56     0     0     0
SMALL
USER_CHARGES

@<TRIPOS>ATOM
      1 C1         -0.0187    1.5258    0.0104 C.3       1 <0>        -0.1555
      2 C2          0.0021   -0.0041    0.0020 C.3       1 <0>        -0.1076
      3 C3         -1.4333   -0.5336    0.0129 C.3       1 <0>        -0.0876
      4 C4         -2.1494   -0.0402    1.2717 C.3       1 <0>        -0.1454
      5 C5         -2.1733   -0.0268   -1.2266 C.3       1 <0>        -0.1460
      6 C6         -1.4129   -2.0405    0.0046 C.2       1 <0>         0.3674
      7 O1         -0.3588   -2.6301   -0.0086 O.2       1 <0>        -0.4139
      8 C7         -2.6937   -2.8034    0.0127 C.2       1 <0>         0.4973
      9 O2         -3.7529   -2.2110    0.0260 O.2       1 <0>        -0.4918
     10 N1         -2.6754   -4.1510    0.0053 N.am      1 <0>        -0.5853
     11 C8         -1.4659   -4.9939   -0.0043 C.3       1 <0>         0.0940
     12 C9         -1.9192   -6.3449    0.6032 C.3       1 <0>        -0.1367
     13 C10        -3.3521   -6.4817    0.0242 C.3       1 <0>        -0.1231
     14 C11        -3.8584   -5.0241    0.0119 C.3       1 <0>         0.1102
     15 H1         -4.4540   -4.8481   -0.8838 H         1 <0>         0.1164
     16 C12        -4.6863   -4.7560    1.2422 C.2       1 <0>         0.2969
     17 O3         -4.3294   -3.9170    2.0427 O.2       1 <0>        -0.4363
     18 S1         -6.0867   -5.6086    1.5023 S.3       1 <0>        -0.0981
     19 C13        -6.7162   -4.9506    3.0711 C.3       1 <0>        -0.0981
     20 C14        -8.0225   -5.6596    3.4340 C.3       1 <0>        -0.0975
     21 C15        -8.5535   -5.1046    4.7572 C.3       1 <0>        -0.0754
     22 C16        -9.8402   -5.8030    5.1147 C.ar      1 <0>        -0.0840
     23 C17       -11.0481   -5.2933    4.6764 C.ar      1 <0>        -0.1163
     24 C18       -12.2284   -5.9340    5.0042 C.ar      1 <0>        -0.1177
     25 C19       -12.2007   -7.0845    5.7700 C.ar      1 <0>        -0.1231
     26 C20       -10.9927   -7.5946    6.2076 C.ar      1 <0>        -0.1180
     27 C21        -9.8122   -6.9564    5.8761 C.ar      1 <0>        -0.1166
     28 H2          1.0039    1.9031    0.0027 H         1 <0>         0.0583
     29 H3         -0.5459    1.8868   -0.8726 H         1 <0>         0.0601
     30 H4         -0.5289    1.8773    0.9072 H         1 <0>         0.0599
     31 H5          0.5123   -0.3556   -0.8948 H         1 <0>         0.0688
     32 H6          0.5293   -0.3651    0.8851 H         1 <0>         0.0684
     33 H7         -2.1642    1.0497    1.2777 H         1 <0>         0.0748
     34 H8         -3.1720   -0.4175    1.2794 H         1 <0>         0.0783
     35 H9         -1.6223   -0.4013    2.1547 H         1 <0>         0.0553
     36 H10        -1.6631   -0.3783   -2.1234 H         1 <0>         0.0562
     37 H11        -3.1959   -0.4041   -1.2189 H         1 <0>         0.0776
     38 H12        -2.1881    1.0631   -1.2207 H         1 <0>         0.0757
     39 H13        -1.1113   -5.1369   -1.0251 H         1 <0>         0.0801
     40 H14        -0.6855   -4.5445    0.6098 H         1 <0>         0.0983
     41 H15        -1.2807   -7.1601    0.2629 H         1 <0>         0.0966
     42 H16        -1.9407   -6.2960    1.6919 H         1 <0>         0.0777
     43 H17        -3.3225   -6.8921   -0.9852 H         1 <0>         0.0973
     44 H18        -3.9734   -7.0979    0.6740 H         1 <0>         0.0973
     45 H19        -5.9805   -5.1196    3.8574 H         1 <0>         0.0953
     46 H20        -6.8996   -3.8810    2.9690 H         1 <0>         0.0966
     47 H21        -8.7583   -5.4906    2.6477 H         1 <0>         0.0785
     48 H22        -7.8392   -6.7292    3.5361 H         1 <0>         0.0781
     49 H23        -7.8178   -5.2737    5.5435 H         1 <0>         0.0764
     50 H24        -8.7369   -4.0350    4.6551 H         1 <0>         0.0769
     51 H25       -11.0697   -4.3945    4.0781 H         1 <0>         0.1217
     52 H26       -13.1721   -5.5354    4.6624 H         1 <0>         0.1223
     53 H27       -13.1228   -7.5846    6.0268 H         1 <0>         0.1216
     54 H28       -10.9711   -8.4933    6.8062 H         1 <0>         0.1222
     55 H29        -8.8681   -7.3570    6.2148 H         1 <0>         0.1214
@<TRIPOS>BOND
     1    1    2 1
     2    1   28 1
     3    1   29 1
     4    1   30 1
     5    2    3 1
     6    2   31 1
     7    2   32 1
     8    3    4 1
     9    3    5 1
    10    3    6 1
    11    4   33 1
    12    4   34 1
    13    4   35 1
    14    5   36 1
    15    5   37 1
    16    5   38 1
    17    6    7 2
    18    6    8 1
    19    8    9 2
    20    8   10 am
    21   10   14 1
    22   10   11 1
    23   11   12 1
    24   11   39 1
    25   11   40 1
    26   12   13 1
    27   12   41 1
    28   12   42 1
    29   13   14 1
    30   13   43 1
    31   13   44 1
    32   14   15 1
    33   14   16 1
    34   16   17 2
    35   16   18 1
    36   18   19 1
    37   19   20 1
    38   19   45 1
    39   19   46 1
    40   20   21 1
    41   20   47 1
    42   20   48 1
    43   21   22 1
    44   21   49 1
    45   21   50 1
    46   22   27 ar
    47   22   23 ar
    48   23   24 ar
    49   23   51 1
    50   24   25 ar
    51   24   52 1
    52   25   26 ar
    53   25   53 1
    54   26   27 ar
    55   26   54 1
    56   27   55 1
@<TRIPOS>MOLECULE
CHEMBL30694
   63    65     0     0     0
SMALL
USER_CHARGES

@<TRIPOS>ATOM
      1 C1          1.1735   -3.4327    1.1834 C.3       1 <0>         0.0261
      2 O1          0.2984   -4.5257    1.4695 O.3       1 <0>        -0.3073
      3 C2         -1.0284   -4.3295    1.2445 C.ar      1 <0>         0.0964
      4 C3         -1.4771   -3.1139    0.7537 C.ar      1 <0>        -0.1702
      5 C4         -2.8261   -2.9163    0.5251 C.ar      1 <0>        -0.1117
      6 C5         -3.7302   -3.9293    0.7856 C.ar      1 <0>        -0.0794
      7 C6         -3.2892   -5.1444    1.2757 C.ar      1 <0>        -0.1677
      8 C7         -1.9377   -5.3511    1.5012 C.ar      1 <0>         0.1020
      9 O2         -1.5015   -6.5478    1.9777 O.3       1 <0>        -0.3066
     10 C8         -2.4913   -7.5501    2.2182 C.3       1 <0>         0.0254
     11 C9         -5.1997   -3.7084    0.5350 C.3       1 <0>        -0.0734
     12 C10        -5.5402   -4.1203   -0.8986 C.3       1 <0>        -0.1144
     13 C11        -7.0322   -3.8960   -1.1530 C.3       1 <0>         0.0670
     14 O3         -7.3502   -4.2808   -2.4919 O.3       1 <0>        -0.3308
     15 C12        -8.6287   -4.1450   -2.8776 C.2       1 <0>         0.4761
     16 O4         -9.4506   -3.7138   -2.1040 O.2       1 <0>        -0.5161
     17 C13        -9.0390   -4.5304   -4.2755 C.3       1 <0>         0.1639
     18 C14        -9.4639   -3.2786   -5.0496 C.3       1 <0>        -0.1263
     19 C15       -10.0100   -3.6910   -6.4185 C.3       1 <0>        -0.1157
     20 C16       -11.2390   -4.5835   -6.2314 C.3       1 <0>        -0.1407
     21 C17       -10.8343   -5.8501   -5.4708 C.3       1 <0>         0.1185
     22 N1        -10.1763   -5.4587   -4.2167 N.pl3     1 <0>        -0.9920
     23 S1        -10.7065   -6.0526   -2.7646 S.o2      1 <0>         2.6023
     24 O5        -11.3839   -7.2583   -3.0915 O.2       1 <0>        -0.9483
     25 O6         -9.5514   -6.0720   -1.9373 O.2       1 <0>        -0.9451
     26 C18       -11.8881   -4.8166   -2.1590 C.3       1 <0>        -0.5779
     27 C19       -12.4399   -5.2590   -0.8282 C.ar      1 <0>        -0.0917
     28 C20       -13.5782   -6.0417   -0.7777 C.ar      1 <0>        -0.1081
     29 C21       -14.0844   -6.4475    0.4429 C.ar      1 <0>        -0.1189
     30 C22       -13.4520   -6.0710    1.6131 C.ar      1 <0>        -0.1103
     31 C23       -12.3132   -5.2890    1.5625 C.ar      1 <0>        -0.1198
     32 C24       -11.8046   -4.8868    0.3417 C.ar      1 <0>        -0.0980
     33 H1          2.2006   -3.7217    1.4063 H         1 <0>         0.1010
     34 H2          1.0912   -3.1677    0.1293 H         1 <0>         0.0549
     35 H3          0.8961   -2.5752    1.7963 H         1 <0>         0.0549
     36 H4         -0.7731   -2.3206    0.5501 H         1 <0>         0.1357
     37 H5         -3.1746   -1.9683    0.1425 H         1 <0>         0.1274
     38 H6         -3.9975   -5.9340    1.4787 H         1 <0>         0.1358
     39 H7         -2.0104   -8.4526    2.5953 H         1 <0>         0.1014
     40 H8         -3.2069   -7.1847    2.9548 H         1 <0>         0.0552
     41 H9         -3.0117   -7.7774    1.2878 H         1 <0>         0.0556
     42 H10        -5.7818   -4.3093    1.2337 H         1 <0>         0.0771
     43 H11        -5.4379   -2.6542    0.6764 H         1 <0>         0.0782
     44 H12        -4.9581   -3.5194   -1.5973 H         1 <0>         0.0765
     45 H13        -5.3020   -5.1745   -1.0400 H         1 <0>         0.0775
     46 H14        -7.6142   -4.4969   -0.4543 H         1 <0>         0.0797
     47 H15        -7.2704   -2.8418   -1.0115 H         1 <0>         0.0690
     48 H16        -8.2019   -5.0098   -4.7830 H         1 <0>         0.1147
     49 H17       -10.2386   -2.7518   -4.4925 H         1 <0>         0.0813
     50 H18        -8.6027   -2.6240   -5.1836 H         1 <0>         0.0864
     51 H19       -10.2902   -2.8004   -6.9810 H         1 <0>         0.0766
     52 H20        -9.2429   -4.2392   -6.9653 H         1 <0>         0.0722
     53 H21       -11.9970   -4.0444   -5.6632 H         1 <0>         0.0703
     54 H22       -11.6413   -4.8577   -7.2067 H         1 <0>         0.0842
     55 H23       -11.7221   -6.4421   -5.2483 H         1 <0>         0.0991
     56 H24       -10.1445   -6.4363   -6.0779 H         1 <0>         0.0820
     57 H25       -11.3831   -3.8578   -2.0422 H         1 <0>         0.1676
     58 H26       -12.7040   -4.7128   -2.8742 H         1 <0>         0.1326
     59 H27       -14.0723   -6.3359   -1.6919 H         1 <0>         0.1282
     60 H28       -14.9741   -7.0585    0.4824 H         1 <0>         0.1291
     61 H29       -13.8479   -6.3875    2.5668 H         1 <0>         0.1274
     62 H30       -11.8193   -4.9946    2.4767 H         1 <0>         0.1284
     63 H31       -10.9128   -4.2790    0.3020 H         1 <0>         0.1328
@<TRIPOS>BOND
     1    1    2 1
     2    1   33 1
     3    1   34 1
     4    1   35 1
     5    2    3 1
     6    3    8 ar
     7    3    4 ar
     8    4    5 ar
     9    4   36 1
    10    5    6 ar
    11    5   37 1
    12    6    7 ar
    13    6   11 1
    14    7    8 ar
    15    7   38 1
    16    8    9 1
    17    9   10 1
    18   10   39 1
    19   10   40 1
    20   10   41 1
    21   11   12 1
    22   11   42 1
    23   11   43 1
    24   12   13 1
    25   12   44 1
    26   12   45 1
    27   13   14 1
    28   13   46 1
    29   13   47 1
    30   14   15 1
    31   15   16 2
    32   15   17 1
    33   17   22 1
    34   17   18 1
    35   17   48 1
    36   18   19 1
    37   18   49 1
    38   18   50 1
    39   19   20 1
    40   19   51 1
    41   19   52 1
    42   20   21 1
    43   20   53 1
    44   20   54 1
    45   21   22 1
    46   21   55 1
    47   21   56 1
    48   22   23 1
    49   23   24 2
    50   23   25 2
    51   23   26 1
    52   26   27 1
    53   26   57 1
    54   26   58 1
    55   27   32 ar
    56   27   28 ar
    57   28   29 ar
    58   28   59 1
    59   29   30 ar
    60   29   60 1
    61   30   31 ar
    62   30   61 1
    63   31   32 ar
    64   31   62 1
    65   32   63 1
@<TRIPOS>MOLECULE
CHEMBL30694__1
   63    65     0     0     0
SMALL
USER_CHARGES

@<TRIPOS>ATOM
      1 C1         -7.3712    5.1354    1.8070 C.3       1 <0>         0.0259
      2 O1         -6.2602    4.3982    1.2929 O.3       1 <0>        -0.3074
      3 C2         -6.4449    3.0668    1.0867 C.ar      1 <0>         0.0967
      4 C3         -7.6704    2.4841    1.3675 C.ar      1 <0>        -0.1697
      5 C4         -7.8566    1.1306    1.1568 C.ar      1 <0>        -0.1106
      6 C5         -6.8222    0.3554    0.6665 C.ar      1 <0>        -0.0797
      7 C6         -5.5970    0.9303    0.3847 C.ar      1 <0>        -0.1680
      8 C7         -5.4055    2.2876    0.5877 C.ar      1 <0>         0.1011
      9 O2         -4.2027    2.8559    0.3054 O.3       1 <0>        -0.3066
     10 C8         -3.1820    1.9951   -0.2038 C.3       1 <0>         0.0259
     11 C9         -7.0306   -1.1197    0.4392 C.3       1 <0>        -0.0733
     12 C10        -7.5381   -1.3495   -0.9858 C.3       1 <0>        -0.1144
     13 C11        -7.7497   -2.8471   -1.2165 C.3       1 <0>         0.0671
     14 O3         -8.2237   -3.0617   -2.5474 O.3       1 <0>        -0.3309
     15 C12        -8.4610   -4.3314   -2.9125 C.2       1 <0>         0.4761
     16 O4         -8.2725   -5.2308   -2.1280 O.2       1 <0>        -0.5161
     17 C13        -8.9625   -4.6351   -4.3007 C.3       1 <0>         0.1639
     18 C14        -7.8926   -5.4113   -5.0750 C.3       1 <0>        -0.1263
     19 C15        -8.4585   -5.8370   -6.4317 C.3       1 <0>        -0.1158
     20 C16        -9.6628   -6.7569   -6.2181 C.3       1 <0>        -0.1407
     21 C17       -10.7528   -5.9959   -5.4568 C.3       1 <0>         0.1185
     22 N1        -10.1763   -5.4587   -4.2167 N.pl3     1 <0>        -0.9920
     23 S1        -10.8813   -5.7756   -2.7521 S.o2      1 <0>         2.6022
     24 O5        -10.5588   -4.6522   -1.9439 O.2       1 <0>        -0.9448
     25 O6        -12.2343   -6.0822   -3.0597 O.2       1 <0>        -0.9482
     26 C18       -10.0302   -7.2540   -2.1353 C.3       1 <0>        -0.5778
     27 C19       -10.5977   -7.6368   -0.7927 C.ar      1 <0>        -0.0918
     28 C20       -10.0492   -7.1146    0.3638 C.ar      1 <0>        -0.0981
     29 C21       -10.5697   -7.4658    1.5953 C.ar      1 <0>        -0.1197
     30 C22       -11.6389   -8.3387    1.6704 C.ar      1 <0>        -0.1102
     31 C23       -12.1880   -8.8601    0.5139 C.ar      1 <0>        -0.1190
     32 C24       -11.6702   -8.5057   -0.7179 C.ar      1 <0>        -0.1080
     33 H1         -7.0899    6.1819    1.9242 H         1 <0>         0.1011
     34 H2         -8.2092    5.0599    1.1141 H         1 <0>         0.0551
     35 H3         -7.6619    4.7267    2.7747 H         1 <0>         0.0550
     36 H4         -8.4798    3.0873    1.7512 H         1 <0>         0.1360
     37 H5         -8.8122    0.6777    1.3761 H         1 <0>         0.1283
     38 H6         -4.7905    0.3225    0.0021 H         1 <0>         0.1351
     39 H7         -2.2764    2.5736   -0.3861 H         1 <0>         0.1011
     40 H8         -2.9719    1.2109    0.5236 H         1 <0>         0.0547
     41 H9         -3.5192    1.5441   -1.1371 H         1 <0>         0.0549
     42 H10        -6.0860   -1.6457    0.5777 H         1 <0>         0.0758
     43 H11        -7.7643   -1.4970    1.1515 H         1 <0>         0.0795
     44 H12        -8.4827   -0.8235   -1.1242 H         1 <0>         0.0790
     45 H13        -6.8044   -0.9722   -1.6980 H         1 <0>         0.0750
     46 H14        -6.8051   -3.3731   -1.0781 H         1 <0>         0.0684
     47 H15        -8.4834   -3.2244   -0.5042 H         1 <0>         0.0802
     48 H16        -9.1883   -3.7035   -4.8196 H         1 <0>         0.1147
     49 H17        -7.0208   -4.7752   -5.2278 H         1 <0>         0.0862
     50 H18        -7.6031   -6.2960   -4.5078 H         1 <0>         0.0813
     51 H19        -8.7706   -4.9534   -6.9884 H         1 <0>         0.0722
     52 H20        -7.6911   -6.3683   -6.9947 H         1 <0>         0.0765
     53 H21       -10.0509   -7.0784   -7.1846 H         1 <0>         0.0842
     54 H22        -9.3566   -7.6288   -5.6401 H         1 <0>         0.0703
     55 H23       -11.1240   -5.1763   -6.0722 H         1 <0>         0.0821
     56 H24       -11.5713   -6.6741   -5.2155 H         1 <0>         0.0991
     57 H25       -10.1732   -8.0752   -2.8377 H         1 <0>         0.1326
     58 H26        -8.9655   -7.0444   -2.0333 H         1 <0>         0.1673
     59 H27        -9.2138   -6.4326    0.3052 H         1 <0>         0.1329
     60 H28       -10.1407   -7.0584    2.4989 H         1 <0>         0.1284
     61 H29       -12.0451   -8.6135    2.6326 H         1 <0>         0.1274
     62 H30       -13.0231   -9.5424    0.5725 H         1 <0>         0.1291
     63 H31       -12.1015   -8.9102   -1.6216 H         1 <0>         0.1282
@<TRIPOS>BOND
     1    1    2 1
     2    1   33 1
     3    1   34 1
     4    1   35 1
     5    2    3 1
     6    3    8 ar
     7    3    4 ar
     8    4    5 ar
     9    4   36 1
    10    5    6 ar
    11    5   37 1
    12    6    7 ar
    13    6   11 1
    14    7    8 ar
    15    7   38 1
    16    8    9 1
    17    9   10 1
    18   10   39 1
    19   10   40 1
    20   10   41 1
    21   11   12 1
    22   11   42 1
    23   11   43 1
    24   12   13 1
    25   12   44 1
    26   12   45 1
    27   13   14 1
    28   13   46 1
    29   13   47 1
    30   14   15 1
    31   15   16 2
    32   15   17 1
    33   17   22 1
    34   17   18 1
    35   17   48 1
    36   18   19 1
    37   18   49 1
    38   18   50 1
    39   19   20 1
    40   19   51 1
    41   19   52 1
    42   20   21 1
    43   20   53 1
    44   20   54 1
    45   21   22 1
    46   21   55 1
    47   21   56 1
    48   22   23 1
    49   23   24 2
    50   23   25 2
    51   23   26 1
    52   26   27 1
    53   26   57 1
    54   26   58 1
    55   27   32 ar
    56   27   28 ar
    57   28   29 ar
    58   28   59 1
    59   29   30 ar
    60   29   60 1
    61   30   31 ar
    62   30   61 1
    63   31   32 ar
    64   31   62 1
    65   32   63 1
@<TRIPOS>MOLECULE
CHEMBL6714
   52    54     0     0     0
SMALL
USER_CHARGES

@<TRIPOS>ATOM
      1 C1          2.5494    2.2091    0.1724 C.ar      1 <0>        -0.0768
      2 C2          2.7216    2.1689    1.5456 C.ar      1 <0>        -0.1328
      3 C3          3.0201    0.9778    2.1719 C.ar      1 <0>        -0.0517
      4 C4          3.1486   -0.1926    1.4162 C.ar      1 <0>        -0.1726
      5 C5          2.9726   -0.1438    0.0291 C.ar      1 <0>        -0.0580
      6 C6          2.6748    1.0552   -0.5824 C.ar      1 <0>        -0.1307
      7 C7          3.4681   -1.4704    2.0780 C.2       1 <0>         0.4043
      8 O1          3.7150   -1.4934    3.2659 O.2       1 <0>        -0.4159
      9 C8          3.4880   -2.7362    1.2868 C.2       1 <0>         0.4890
     10 O2          2.4591   -3.3529    1.1024 O.2       1 <0>        -0.4780
     11 N1          4.6487   -3.1943    0.7772 N.am      1 <0>        -0.5946
     12 C9          5.9191   -2.5256    1.0898 C.3       1 <0>         0.1084
     13 C10         6.6310   -2.1814   -0.2222 C.3       1 <0>        -0.1389
     14 C11         6.7792   -3.4498   -1.0656 C.3       1 <0>        -0.1182
     15 C12         5.3935   -4.0071   -1.3996 C.3       1 <0>        -0.1234
     16 C13         4.6683   -4.3754   -0.0964 C.3       1 <0>         0.1553
     17 C14         3.2553   -4.7992   -0.4047 C.2       1 <0>         0.4681
     18 O3          2.4508   -3.9846   -0.7907 O.2       1 <0>        -0.4709
     19 O4          2.8906   -6.0818   -0.2505 O.3       1 <0>        -0.3520
     20 C15         1.5356   -6.4128   -0.5612 C.3       1 <0>         0.0710
     21 C16         1.3090   -7.9075   -0.3263 C.3       1 <0>        -0.1131
     22 C17        -0.1417   -8.2619   -0.6590 C.3       1 <0>        -0.0735
     23 C18        -0.3649   -9.7342   -0.4276 C.ar      1 <0>        -0.1340
     24 C19        -0.1489  -10.6463   -1.4496 C.ar      1 <0>        -0.0724
     25 C20        -0.3670  -11.9907   -1.1912 C.ar      1 <0>        -0.1701
     26 C21        -0.7896  -12.3747    0.0676 C.ar      1 <0>         0.0942
     27 N2         -0.9854  -11.4794    1.0156 N.ar      1 <0>        -0.4830
     28 C22        -0.7819  -10.1930    0.8073 C.ar      1 <0>         0.1027
     29 H1          2.3116    3.1446   -0.3120 H         1 <0>         0.1317
     30 H2          2.6221    3.0733    2.1275 H         1 <0>         0.1342
     31 H3          3.1549    0.9483    3.2431 H         1 <0>         0.1371
     32 H4          3.0702   -1.0431   -0.5611 H         1 <0>         0.1315
     33 H5          2.5387    1.0946   -1.6531 H         1 <0>         0.1327
     34 H6          5.7227   -1.6113    1.6498 H         1 <0>         0.0858
     35 H7          6.5465   -3.1917    1.6822 H         1 <0>         0.0856
     36 H8          6.0445   -1.4453   -0.7721 H         1 <0>         0.0735
     37 H9          7.6174   -1.7720   -0.0043 H         1 <0>         0.0866
     38 H10         7.3073   -3.2122   -1.9890 H         1 <0>         0.0795
     39 H11         7.3446   -4.1944   -0.5053 H         1 <0>         0.0732
     40 H12         4.8187   -3.2539   -1.9384 H         1 <0>         0.0814
     41 H13         5.4992   -4.8972   -2.0198 H         1 <0>         0.0885
     42 H14         5.1958   -5.1892    0.4011 H         1 <0>         0.1118
     43 H15         0.8655   -5.8387    0.0787 H         1 <0>         0.0724
     44 H16         1.3337   -6.1744   -1.6055 H         1 <0>         0.0670
     45 H17         1.9792   -8.4816   -0.9662 H         1 <0>         0.0754
     46 H18         1.5110   -8.1459    0.7180 H         1 <0>         0.0770
     47 H19        -0.8118   -7.6879   -0.0191 H         1 <0>         0.0818
     48 H20        -0.3437   -8.0235   -1.7032 H         1 <0>         0.0796
     49 H21         0.1812  -10.3170   -2.4238 H         1 <0>         0.1343
     50 H22        -0.2091  -12.7286   -1.9638 H         1 <0>         0.1360
     51 H23        -0.9618  -13.4201    0.2769 H         1 <0>         0.1561
     52 H24        -0.9478   -9.4896    1.6099 H         1 <0>         0.1549
@<TRIPOS>BOND
     1    1    6 ar
     2    1    2 ar
     3    1   29 1
     4    2    3 ar
     5    2   30 1
     6    3    4 ar
     7    3   31 1
     8    4    5 ar
     9    4    7 1
    10    5    6 ar
    11    5   32 1
    12    6   33 1
    13    7    8 2
    14    7    9 1
    15    9   10 2
    16    9   11 am
    17   11   16 1
    18   11   12 1
    19   12   13 1
    20   12   34 1
    21   12   35 1
    22   13   14 1
    23   13   36 1
    24   13   37 1
    25   14   15 1
    26   14   38 1
    27   14   39 1
    28   15   16 1
    29   15   40 1
    30   15   41 1
    31   16   17 1
    32   16   42 1
    33   17   18 2
    34   17   19 1
    35   19   20 1
    36   20   21 1
    37   20   43 1
    38   20   44 1
    39   21   22 1
    40   21   45 1
    41   21   46 1
    42   22   23 1
    43   22   47 1
    44   22   48 1
    45   23   28 ar
    46   23   24 ar
    47   24   25 ar
    48   24   49 1
    49   25   26 ar
    50   25   50 1
    51   26   27 ar
    52   26   51 1
    53   27   28 ar
    54   28   52 1
@<TRIPOS>MOLECULE
CHEMBL6714__1
   52    54     0     0     0
SMALL
USER_CHARGES

@<TRIPOS>ATOM
      1 C1          4.4463   -1.2001   -6.2507 C.ar      1 <0>        -0.0771
      2 C2          4.2671   -0.0015   -5.5812 C.ar      1 <0>        -0.1305
      3 C3          4.0664    0.0070   -4.2174 C.ar      1 <0>        -0.0513
      4 C4          4.0437   -1.1998   -3.5099 C.ar      1 <0>        -0.1705
      5 C5          4.2251   -2.4068   -4.1939 C.ar      1 <0>        -0.0628
      6 C6          4.4251   -2.3985   -5.5578 C.ar      1 <0>        -0.1293
      7 C7          3.8301   -1.1996   -2.0515 C.2       1 <0>         0.4022
      8 O1          3.7676   -0.1489   -1.4475 O.2       1 <0>        -0.4121
      9 C8          3.6907   -2.4921   -1.3173 C.2       1 <0>         0.4889
     10 O2          2.6076   -3.0348   -1.2444 O.2       1 <0>        -0.4800
     11 N1          4.7677   -3.0562   -0.7355 N.am      1 <0>        -0.5925
     12 C9          6.0620   -2.3609   -0.7231 C.3       1 <0>         0.1071
     13 C10         6.5646   -2.2805    0.7218 C.3       1 <0>        -0.1394
     14 C11         6.6008   -3.6870    1.3240 C.3       1 <0>        -0.1172
     15 C12         5.1880   -4.2751    1.3361 C.3       1 <0>        -0.1278
     16 C13         4.6683   -4.3754   -0.0964 C.3       1 <0>         0.1571
     17 C14         3.2289   -4.8213   -0.0794 C.2       1 <0>         0.4657
     18 O3          2.3881   -4.1289    0.4436 O.2       1 <0>        -0.4665
     19 O4          2.8808   -5.9877   -0.6452 O.3       1 <0>        -0.3539
     20 C15         1.4989   -6.3477   -0.5921 C.3       1 <0>         0.0706
     21 C16         1.2967   -7.6978   -1.2829 C.3       1 <0>        -0.1122
     22 C17        -0.1828   -8.0832   -1.2261 C.3       1 <0>        -0.0741
     23 C18        -0.3820   -9.4130   -1.9065 C.ar      1 <0>        -0.1337
     24 C19        -0.6550   -9.4728   -3.2648 C.ar      1 <0>        -0.0723
     25 C20        -0.8308  -10.7180   -3.8483 C.ar      1 <0>        -0.1697
     26 C21        -0.7290  -11.8505   -3.0623 C.ar      1 <0>         0.0941
     27 N2         -0.4685  -11.7557   -1.7732 N.ar      1 <0>        -0.4831
     28 C22        -0.2893  -10.5884   -1.1860 C.ar      1 <0>         0.1023
     29 H1          4.5990   -1.2004   -7.3199 H         1 <0>         0.1325
     30 H2          4.2850    0.9292   -6.1288 H         1 <0>         0.1350
     31 H3          3.9275    0.9428   -3.6965 H         1 <0>         0.1378
     32 H4          4.2088   -3.3424   -3.6547 H         1 <0>         0.1268
     33 H5          4.5653   -3.3293   -6.0872 H         1 <0>         0.1336
     34 H6          6.7795   -2.9137   -1.3294 H         1 <0>         0.0856
     35 H7          5.9401   -1.3547   -1.1241 H         1 <0>         0.0864
     36 H8          7.5673   -1.8532    0.7349 H         1 <0>         0.0868
     37 H9          5.8929   -1.6517    1.3062 H         1 <0>         0.0743
     38 H10         7.2534   -4.3219    0.7248 H         1 <0>         0.0729
     39 H11         6.9815   -3.6355    2.3441 H         1 <0>         0.0794
     40 H12         5.2109   -5.2674    1.7866 H         1 <0>         0.0885
     41 H13         4.5293   -3.6275    1.9148 H         1 <0>         0.0827
     42 H14         5.2697   -5.0961   -0.6505 H         1 <0>         0.1119
     43 H15         1.1822   -6.4208    0.4483 H         1 <0>         0.0674
     44 H16         0.9056   -5.5872   -1.0999 H         1 <0>         0.0715
     45 H17         1.6134   -7.6246   -2.3233 H         1 <0>         0.0751
     46 H18         1.8900   -8.4582   -0.7751 H         1 <0>         0.0767
     47 H19        -0.4996   -8.1564   -0.1857 H         1 <0>         0.0816
     48 H20        -0.7761   -7.3228   -1.7339 H         1 <0>         0.0799
     49 H21        -0.7292   -8.5708   -3.8540 H         1 <0>         0.1343
     50 H22        -1.0451  -10.8021   -4.9034 H         1 <0>         0.1360
     51 H23        -0.8646  -12.8243   -3.5092 H         1 <0>         0.1561
     52 H24        -0.0722  -10.5506   -0.1287 H         1 <0>         0.1548
@<TRIPOS>BOND
     1    1    6 ar
     2    1    2 ar
     3    1   29 1
     4    2    3 ar
     5    2   30 1
     6    3    4 ar
     7    3   31 1
     8    4    5 ar
     9    4    7 1
    10    5    6 ar
    11    5   32 1
    12    6   33 1
    13    7    8 2
    14    7    9 1
    15    9   10 2
    16    9   11 am
    17   11   16 1
    18   11   12 1
    19   12   13 1
    20   12   34 1
    21   12   35 1
    22   13   14 1
    23   13   36 1
    24   13   37 1
    25   14   15 1
    26   14   38 1
    27   14   39 1
    28   15   16 1
    29   15   40 1
    30   15   41 1
    31   16   17 1
    32   16   42 1
    33   17   18 2
    34   17   19 1
    35   19   20 1
    36   20   21 1
    37   20   43 1
    38   20   44 1
    39   21   22 1
    40   21   45 1
    41   21   46 1
    42   22   23 1
    43   22   47 1
    44   22   48 1
    45   23   28 ar
    46   23   24 ar
    47   24   25 ar
    48   24   49 1
    49   25   26 ar
    50   25   50 1
    51   26   27 ar
    52   26   51 1
    53   27   28 ar
    54   28   52 1
@<TRIPOS>MOLECULE
CHEMBL286152
   53    55     0     0     0
SMALL
USER_CHARGES

@<TRIPOS>ATOM
      1 C1         -0.3805   -4.3146    0.0633 C.ar      1 <0>        -0.1249
      2 C2         -0.2657   -3.1399    0.7830 C.ar      1 <0>        -0.1187
      3 C3          0.9741   -2.5534    0.9554 C.ar      1 <0>        -0.1179
      4 C4          2.0991   -3.1417    0.4086 C.ar      1 <0>        -0.0822
      5 C5          1.9844   -4.3168   -0.3104 C.ar      1 <0>        -0.1171
      6 C6          0.7444   -4.9026   -0.4840 C.ar      1 <0>        -0.1181
      7 C7          3.4506   -2.5018    0.5957 C.3       1 <0>        -0.0777
      8 C8          4.0998   -3.0445    1.8705 C.3       1 <0>        -0.1261
      9 C9          5.4719   -2.3948    2.0605 C.3       1 <0>         0.1255
     10 N1          6.0934   -2.9145    3.2811 N.am      1 <0>        -0.7031
     11 C10         7.3145   -2.4814    3.6524 C.2       1 <0>         0.5164
     12 O1          7.8987   -1.6615    2.9762 O.2       1 <0>        -0.5357
     13 C11         7.9539   -3.0159    4.9080 C.3       1 <0>         0.1388
     14 C12         8.4961   -1.8522    5.7437 C.3       1 <0>        -0.1210
     15 C13         9.2647   -2.4069    6.9453 C.3       1 <0>        -0.1161
     16 C14        10.4494   -3.2419    6.4539 C.3       1 <0>        -0.1386
     17 C15         9.9293   -4.4214    5.6262 C.3       1 <0>         0.1208
     18 N2          9.0697   -3.9035    4.5531 N.pl3     1 <0>        -0.9859
     19 S1          9.3530   -4.3124    2.9736 S.o2      1 <0>         2.6846
     20 O2          9.9535   -5.6002    2.9889 O.2       1 <0>        -0.9550
     21 O3          8.1537   -4.0395    2.2620 O.2       1 <0>        -0.9373
     22 C16        10.5695   -3.1968    2.3568 C.ar      1 <0>        -0.6750
     23 C17        10.1864   -2.1080    1.5963 C.ar      1 <0>         0.0072
     24 C18        11.1407   -1.2328    1.1124 C.ar      1 <0>        -0.1455
     25 C19        12.4781   -1.4462    1.3895 C.ar      1 <0>        -0.0622
     26 C20        12.8611   -2.5345    2.1508 C.ar      1 <0>        -0.1471
     27 C21        11.9064   -3.4074    2.6383 C.ar      1 <0>        -0.0249
     28 H1         -1.3486   -4.7752   -0.0676 H         1 <0>         0.1207
     29 H2         -1.1447   -2.6803    1.2102 H         1 <0>         0.1213
     30 H3          1.0637   -1.6353    1.5171 H         1 <0>         0.1209
     31 H4          2.8633   -4.7763   -0.7379 H         1 <0>         0.1218
     32 H5          0.6547   -5.8205   -1.0460 H         1 <0>         0.1216
     33 H6          4.0837   -2.7326   -0.2610 H         1 <0>         0.0770
     34 H7          3.3326   -1.4215    0.6797 H         1 <0>         0.0756
     35 H8          3.4667   -2.8137    2.7272 H         1 <0>         0.0687
     36 H9          4.2178   -4.1248    1.7865 H         1 <0>         0.0722
     37 H10         6.1050   -2.6256    1.2037 H         1 <0>         0.0780
     38 H11         5.3538   -1.3145    2.1444 H         1 <0>         0.0650
     39 H12         5.6262   -3.5702    3.8219 H         1 <0>         0.3976
     40 H13         7.2153   -3.5709    5.4864 H         1 <0>         0.0956
     41 H14         9.1647   -1.2459    5.1326 H         1 <0>         0.0828
     42 H15         7.6664   -1.2385    6.0944 H         1 <0>         0.0784
     43 H16         9.6307   -1.5809    7.5550 H         1 <0>         0.0717
     44 H17         8.6020   -3.0331    7.5426 H         1 <0>         0.0675
     45 H18        11.0996   -2.6225    5.8360 H         1 <0>         0.0700
     46 H19        11.0099   -3.6173    7.3101 H         1 <0>         0.0802
     47 H20        10.7702   -4.9621    5.1920 H         1 <0>         0.0911
     48 H21         9.3530   -5.0903    6.2654 H         1 <0>         0.0810
     49 H22         9.1415   -1.9412    1.3798 H         1 <0>         0.1563
     50 H23        10.8415   -0.3824    0.5176 H         1 <0>         0.1307
     51 H24        13.2238   -0.7628    1.0108 H         1 <0>         0.1291
     52 H25        13.9060   -2.7015    2.3670 H         1 <0>         0.1309
     53 H26        12.2053   -4.2556    3.2362 H         1 <0>         0.1312
@<TRIPOS>BOND
     1    1    6 ar
     2    1    2 ar
     3    1   28 1
     4    2    3 ar
     5    2   29 1
     6    3    4 ar
     7    3   30 1
     8    4    5 ar
     9    4    7 1
    10    5    6 ar
    11    5   31 1
    12    6   32 1
    13    7    8 1
    14    7   33 1
    15    7   34 1
    16    8    9 1
    17    8   35 1
    18    8   36 1
    19    9   10 1
    20    9   37 1
    21    9   38 1
    22   10   11 am
    23   10   39 1
    24   11   12 2
    25   11   13 1
    26   13   18 1
    27   13   14 1
    28   13   40 1
    29   14   15 1
    30   14   41 1
    31   14   42 1
    32   15   16 1
    33   15   43 1
    34   15   44 1
    35   16   17 1
    36   16   45 1
    37   16   46 1
    38   17   18 1
    39   17   47 1
    40   17   48 1
    41   18   19 1
    42   19   20 2
    43   19   21 2
    44   19   22 1
    45   22   27 ar
    46   22   23 ar
    47   23   24 ar
    48   23   49 1
    49   24   25 ar
    50   24   50 1
    51   25   26 ar
    52   25   51 1
    53   26   27 ar
    54   26   52 1
    55   27   53 1
@<TRIPOS>MOLECULE
CHEMBL286152__1
   53    55     0     0     0
SMALL
USER_CHARGES

@<TRIPOS>ATOM
      1 C1          8.9831    5.5518   -0.6718 C.ar      1 <0>        -0.1249
      2 C2          9.8375    4.5068   -0.9699 C.ar      1 <0>        -0.1180
      3 C3          9.4070    3.2007   -0.8302 C.ar      1 <0>        -0.1172
      4 C4          8.1222    2.9395   -0.3920 C.ar      1 <0>        -0.0822
      5 C5          7.2681    3.9845   -0.0930 C.ar      1 <0>        -0.1178
      6 C6          7.6982    5.2907   -0.2341 C.ar      1 <0>        -0.1187
      7 C7          7.6525    1.5156   -0.2406 C.3       1 <0>        -0.0778
      8 C8          7.9609    1.0246    1.1753 C.3       1 <0>        -0.1263
      9 C9          7.4840   -0.4210    1.3290 C.3       1 <0>         0.1248
     10 N1          7.7793   -0.8911    2.6847 N.am      1 <0>        -0.7073
     11 C10         7.4461   -2.1447    3.0508 C.2       1 <0>         0.5217
     12 O1          6.9018   -2.8835    2.2578 O.2       1 <0>        -0.5365
     13 C11         7.7498   -2.6283    4.4454 C.3       1 <0>         0.1379
     14 C12         6.4815   -3.2150    5.0730 C.3       1 <0>        -0.1213
     15 C13         6.8266   -3.8291    6.4317 C.3       1 <0>        -0.1160
     16 C14         7.8386   -4.9609    6.2397 C.3       1 <0>        -0.1385
     17 C15         9.1223   -4.3939    5.6252 C.3       1 <0>         0.1222
     18 N2          8.7784   -3.6759    4.3903 N.pl3     1 <0>        -0.9861
     19 S1          9.5358   -4.0405    2.9635 S.o2      1 <0>         2.6852
     20 O2          9.2606   -2.9687    2.0721 O.2       1 <0>        -0.9357
     21 O3         10.8602   -4.4341    3.2958 O.2       1 <0>        -0.9562
     22 C16         8.7388   -5.4649    2.2997 C.ar      1 <0>        -0.6759
     23 C17         9.1914   -6.7280    2.6320 C.ar      1 <0>        -0.0265
     24 C18         8.5661   -7.8455    2.1112 C.ar      1 <0>        -0.1478
     25 C19         7.4878   -7.6997    1.2585 C.ar      1 <0>        -0.0627
     26 C20         7.0346   -6.4366    0.9270 C.ar      1 <0>        -0.1472
     27 C21         7.6572   -5.3192    1.4512 C.ar      1 <0>        -0.0040
     28 H1          9.3210    6.5722   -0.7766 H         1 <0>         0.1207
     29 H2         10.8413    4.7108   -1.3122 H         1 <0>         0.1216
     30 H3         10.0743    2.3842   -1.0637 H         1 <0>         0.1218
     31 H4          6.2642    3.7805    0.2490 H         1 <0>         0.1210
     32 H5          7.0308    6.1071   -0.0009 H         1 <0>         0.1213
     33 H6          6.5778    1.4669   -0.4161 H         1 <0>         0.0758
     34 H7          8.1678    0.8842   -0.9644 H         1 <0>         0.0772
     35 H8          9.0355    1.0733    1.3507 H         1 <0>         0.0717
     36 H9          7.4456    1.6561    1.8991 H         1 <0>         0.0689
     37 H10         6.4093   -0.4697    1.1535 H         1 <0>         0.0656
     38 H11         7.9993   -1.0524    0.6052 H         1 <0>         0.0791
     39 H12         8.2146   -0.3002    3.3189 H         1 <0>         0.3975
     40 H13         8.1081   -1.7958    5.0508 H         1 <0>         0.0956
     41 H14         5.7432   -2.4246    5.2080 H         1 <0>         0.0789
     42 H15         6.0746   -3.9857    4.4183 H         1 <0>         0.0824
     43 H16         7.2564   -3.0634    7.0776 H         1 <0>         0.0677
     44 H17         5.9214   -4.2255    6.8915 H         1 <0>         0.0718
     45 H18         8.0663   -5.4131    7.2049 H         1 <0>         0.0800
     46 H19         7.4190   -5.7151    5.5740 H         1 <0>         0.0700
     47 H20         9.5916   -3.7065    6.3290 H         1 <0>         0.0808
     48 H21         9.8082   -5.2091    5.3950 H         1 <0>         0.0897
     49 H22        10.0338   -6.8419    3.2981 H         1 <0>         0.1340
     50 H23         8.9201   -8.8324    2.3702 H         1 <0>         0.1308
     51 H24         6.9997   -8.5727    0.8511 H         1 <0>         0.1287
     52 H25         6.1924   -6.3227    0.2606 H         1 <0>         0.1304
     53 H26         7.3008   -4.3324    1.1951 H         1 <0>         0.1696
@<TRIPOS>BOND
     1    1    6 ar
     2    1    2 ar
     3    1   28 1
     4    2    3 ar
     5    2   29 1
     6    3    4 ar
     7    3   30 1
     8    4    5 ar
     9    4    7 1
    10    5    6 ar
    11    5   31 1
    12    6   32 1
    13    7    8 1
    14    7   33 1
    15    7   34 1
    16    8    9 1
    17    8   35 1
    18    8   36 1
    19    9   10 1
    20    9   37 1
    21    9   38 1
    22   10   11 am
    23   10   39 1
    24   11   12 2
    25   11   13 1
    26   13   18 1
    27   13   14 1
    28   13   40 1
    29   14   15 1
    30   14   41 1
    31   14   42 1
    32   15   16 1
    33   15   43 1
    34   15   44 1
    35   16   17 1
    36   16   45 1
    37   16   46 1
    38   17   18 1
    39   17   47 1
    40   17   48 1
    41   18   19 1
    42   19   20 2
    43   19   21 2
    44   19   22 1
    45   22   27 ar
    46   22   23 ar
    47   23   24 ar
    48   23   49 1
    49   24   25 ar
    50   24   50 1
    51   25   26 ar
    52   25   51 1
    53   26   27 ar
    54   26   52 1
    55   27   53 1
@<TRIPOS>MOLECULE
CHEMBL50795
   55    56     0     0     0
SMALL
USER_CHARGES

@<TRIPOS>ATOM
      1 C1         -0.1406    1.5234   -0.0551 C.3       1 <0>        -0.1379
      2 C2         -0.0837   -0.0055   -0.0450 C.3       1 <0>        -0.0914
      3 C3          0.6486   -0.4803    1.2117 C.3       1 <0>        -0.1452
      4 C4         -1.5062   -0.5688   -0.0498 C.3       1 <0>        -0.1442
      5 C5          0.6522   -0.4889   -1.2680 C.2       1 <0>         0.3752
      6 O1          1.0864    0.3074   -2.0656 O.2       1 <0>        -0.4039
      7 C6          0.8442   -1.9501   -1.4934 C.2       1 <0>         0.4748
      8 O2          0.5074   -2.7451   -0.6405 O.2       1 <0>        -0.4800
      9 N1          1.3918   -2.3881   -2.6444 N.am      1 <0>        -0.5768
     10 C7          1.9375   -1.4378   -3.6231 C.3       1 <0>         0.0472
     11 C8          1.2948   -1.7106   -4.9866 C.3       1 <0>        -0.1356
     12 C9          1.4992   -3.1813   -5.3573 C.3       1 <0>        -0.1203
     13 C10         0.8176   -4.0712   -4.3153 C.3       1 <0>        -0.1231
     14 C11         1.4598   -3.8254   -2.9416 C.3       1 <0>         0.1475
     15 C12         0.7095   -4.5957   -1.8858 C.2       1 <0>         0.4801
     16 O3         -0.4840   -4.4506   -1.7659 O.2       1 <0>        -0.4938
     17 O4          1.3671   -5.4430   -1.0787 O.3       1 <0>        -0.3508
     18 C13         0.5927   -6.1400   -0.1006 C.3       1 <0>         0.0726
     19 C14         1.5077   -7.0522    0.7189 C.3       1 <0>        -0.1118
     20 C15         0.6786   -7.7984    1.7661 C.3       1 <0>        -0.0777
     21 C16         1.5799   -8.6969    2.5733 C.ar      1 <0>        -0.0822
     22 C17         1.8113   -9.9955    2.1598 C.ar      1 <0>        -0.1168
     23 C18         2.6380  -10.8197    2.9002 C.ar      1 <0>        -0.1182
     24 C19         3.2337  -10.3451    4.0538 C.ar      1 <0>        -0.1238
     25 C20         3.0030   -9.0462    4.4668 C.ar      1 <0>        -0.1181
     26 C21         2.1797   -8.2207    3.7241 C.ar      1 <0>        -0.1163
     27 H1          0.8729    1.9247   -0.0516 H         1 <0>         0.0634
     28 H2         -0.6623    1.8617   -0.9504 H         1 <0>         0.0632
     29 H3         -0.6728    1.8730    0.8295 H         1 <0>         0.0706
     30 H4          0.1163   -0.1307    2.0963 H         1 <0>         0.0732
     31 H5          0.6891   -1.5695    1.2189 H         1 <0>         0.0808
     32 H6          1.6620   -0.0790    1.2152 H         1 <0>         0.0570
     33 H7         -2.0279   -0.2306   -0.9451 H         1 <0>         0.0572
     34 H8         -1.4657   -1.6580   -0.0426 H         1 <0>         0.0783
     35 H9         -2.0385   -0.2192    0.8348 H         1 <0>         0.0738
     36 H10         1.7100   -0.4190   -3.3092 H         1 <0>         0.1557
     37 H11         3.0173   -1.5675   -3.6955 H         1 <0>         0.0746
     38 H12         0.2280   -1.4930   -4.9361 H         1 <0>         0.0685
     39 H13         1.7605   -1.0771   -5.7416 H         1 <0>         0.0833
     40 H14         1.0643   -3.3724   -6.3383 H         1 <0>         0.0765
     41 H15         2.5658   -3.4044   -5.3834 H         1 <0>         0.0703
     42 H16        -0.2448   -3.8314   -4.2711 H         1 <0>         0.0827
     43 H17         0.9435   -5.1178   -4.5925 H         1 <0>         0.0848
     44 H18         2.5015   -4.1459   -2.9596 H         1 <0>         0.1081
     45 H19         0.1101   -5.4205    0.5608 H         1 <0>         0.0721
     46 H20        -0.1672   -6.7412   -0.5998 H         1 <0>         0.0646
     47 H21         1.9904   -7.7717    0.0574 H         1 <0>         0.0744
     48 H22         2.2676   -6.4509    1.2181 H         1 <0>         0.0753
     49 H23         0.1960   -7.0789    2.4275 H         1 <0>         0.0770
     50 H24        -0.0812   -8.3997    1.2669 H         1 <0>         0.0763
     51 H25         1.3459  -10.3663    1.2585 H         1 <0>         0.1215
     52 H26         2.8182  -11.8345    2.5776 H         1 <0>         0.1220
     53 H27         3.8790  -10.9892    4.6327 H         1 <0>         0.1214
     54 H28         3.4681   -8.6755    5.3683 H         1 <0>         0.1221
     55 H29         2.0024   -7.2047    4.0447 H         1 <0>         0.1217
@<TRIPOS>BOND
     1    1    2 1
     2    1   27 1
     3    1   28 1
     4    1   29 1
     5    2    3 1
     6    2    4 1
     7    2    5 1
     8    3   30 1
     9    3   31 1
    10    3   32 1
    11    4   33 1
    12    4   34 1
    13    4   35 1
    14    5    6 2
    15    5    7 1
    16    7    8 2
    17    7    9 am
    18    9   14 1
    19    9   10 1
    20   10   11 1
    21   10   36 1
    22   10   37 1
    23   11   12 1
    24   11   38 1
    25   11   39 1
    26   12   13 1
    27   12   40 1
    28   12   41 1
    29   13   14 1
    30   13   42 1
    31   13   43 1
    32   14   15 1
    33   14   44 1
    34   15   16 2
    35   15   17 1
    36   17   18 1
    37   18   19 1
    38   18   45 1
    39   18   46 1
    40   19   20 1
    41   19   47 1
    42   19   48 1
    43   20   21 1
    44   20   49 1
    45   20   50 1
    46   21   26 ar
    47   21   22 ar
    48   22   23 ar
    49   22   51 1
    50   23   24 ar
    51   23   52 1
    52   24   25 ar
    53   24   53 1
    54   25   26 ar
    55   25   54 1
    56   26   55 1
@<TRIPOS>MOLECULE
CHEMBL50795__1
   55    56     0     0     0
SMALL
USER_CHARGES

@<TRIPOS>ATOM
      1 C1         -1.2431    1.3402   -0.5811 C.3       1 <0>        -0.1374
      2 C2         -0.8457   -0.1265   -0.4028 C.3       1 <0>        -0.0919
      3 C3          0.1030   -0.2564    0.7905 C.3       1 <0>        -0.1440
      4 C4         -2.0989   -0.9676   -0.1519 C.3       1 <0>        -0.1454
      5 C5         -0.1543   -0.6147   -1.6496 C.2       1 <0>         0.3698
      6 O1          0.0043    0.1333   -2.5846 O.2       1 <0>        -0.4062
      7 C6          0.3340   -2.0212   -1.7291 C.2       1 <0>         0.4726
      8 O2          0.0465   -2.8136   -0.8560 O.2       1 <0>        -0.4777
      9 N1          1.0946   -2.4126   -2.7706 N.am      1 <0>        -0.5784
     10 C7          1.5793   -1.4337   -3.7532 C.3       1 <0>         0.0722
     11 C8          3.1004   -1.5689   -3.8749 C.3       1 <0>        -0.1393
     12 C9          3.4546   -3.0204   -4.2063 C.3       1 <0>        -0.1195
     13 C10         2.9773   -3.9347   -3.0757 C.3       1 <0>        -0.1252
     14 C11         1.4598   -3.8254   -2.9416 C.3       1 <0>         0.1499
     15 C12         1.0027   -4.6142   -1.7417 C.2       1 <0>         0.4768
     16 O3          1.5358   -4.4476   -0.6703 O.2       1 <0>        -0.4857
     17 O4          0.0032   -5.5019   -1.8632 O.3       1 <0>        -0.3535
     18 C13        -0.3786   -6.2143   -0.6847 C.3       1 <0>         0.0725
     19 C14        -1.5240   -7.1728   -1.0168 C.3       1 <0>        -0.1118
     20 C15        -1.9327   -7.9356    0.2450 C.3       1 <0>        -0.0777
     21 C16        -3.0609   -8.8797   -0.0821 C.ar      1 <0>        -0.0822
     22 C17        -4.3716   -8.4534    0.0239 C.ar      1 <0>        -0.1163
     23 C18        -5.4064   -9.3194   -0.2761 C.ar      1 <0>        -0.1181
     24 C19        -5.1306  -10.6115   -0.6826 C.ar      1 <0>        -0.1238
     25 C20        -3.8199  -11.0375   -0.7894 C.ar      1 <0>        -0.1182
     26 C21        -2.7849  -10.1702   -0.4935 C.ar      1 <0>        -0.1167
     27 H1         -0.3503    1.9394   -0.7598 H         1 <0>         0.0628
     28 H2         -1.9189    1.4327   -1.4312 H         1 <0>         0.0631
     29 H3         -1.7431    1.6933    0.3208 H         1 <0>         0.0702
     30 H4         -0.3970    0.0968    1.6924 H         1 <0>         0.0740
     31 H5          0.3861   -1.3013    0.9176 H         1 <0>         0.0767
     32 H6          0.9958    0.3428    0.6118 H         1 <0>         0.0572
     33 H7         -2.7748   -0.8750   -1.0021 H         1 <0>         0.0565
     34 H8         -1.8158   -2.0125   -0.0249 H         1 <0>         0.0813
     35 H9         -2.5990   -0.6144    0.7499 H         1 <0>         0.0724
     36 H10         1.1167   -1.6275   -4.7210 H         1 <0>         0.0784
     37 H11         1.3275   -0.4267   -3.4207 H         1 <0>         0.1352
     38 H12         3.4613   -0.9158   -4.6694 H         1 <0>         0.0847
     39 H13         3.5673   -1.2869   -2.9312 H         1 <0>         0.0693
     40 H14         2.9673   -3.3096   -5.1374 H         1 <0>         0.0708
     41 H15         4.5348   -3.1143   -4.3177 H         1 <0>         0.0771
     42 H16         3.2505   -4.9655   -3.3014 H         1 <0>         0.0854
     43 H17         3.4454   -3.6304   -2.1395 H         1 <0>         0.0839
     44 H18         0.9873   -4.2186   -3.8417 H         1 <0>         0.1080
     45 H19         0.4737   -6.7821   -0.3113 H         1 <0>         0.0648
     46 H20        -0.7060   -5.5071    0.0774 H         1 <0>         0.0720
     47 H21        -2.3762   -6.6050   -1.3902 H         1 <0>         0.0749
     48 H22        -1.1966   -7.8800   -1.7789 H         1 <0>         0.0745
     49 H23        -1.0805   -8.5034    0.6183 H         1 <0>         0.0764
     50 H24        -2.2601   -7.2284    1.0070 H         1 <0>         0.0770
     51 H25        -4.5871   -7.4439    0.3414 H         1 <0>         0.1216
     52 H26        -6.4305   -8.9866   -0.1926 H         1 <0>         0.1221
     53 H27        -5.9391  -11.2883   -0.9163 H         1 <0>         0.1214
     54 H28        -3.6044  -12.0472   -1.1066 H         1 <0>         0.1221
     55 H29        -1.7608  -10.5019   -0.5806 H         1 <0>         0.1215
@<TRIPOS>BOND
     1    1    2 1
     2    1   27 1
     3    1   28 1
     4    1   29 1
     5    2    3 1
     6    2    4 1
     7    2    5 1
     8    3   30 1
     9    3   31 1
    10    3   32 1
    11    4   33 1
    12    4   34 1
    13    4   35 1
    14    5    6 2
    15    5    7 1
    16    7    8 2
    17    7    9 am
    18    9   14 1
    19    9   10 1
    20   10   11 1
    21   10   36 1
    22   10   37 1
    23   11   12 1
    24   11   38 1
    25   11   39 1
    26   12   13 1
    27   12   40 1
    28   12   41 1
    29   13   14 1
    30   13   42 1
    31   13   43 1
    32   14   15 1
    33   14   44 1
    34   15   16 2
    35   15   17 1
    36   17   18 1
    37   18   19 1
    38   18   45 1
    39   18   46 1
    40   19   20 1
    41   19   47 1
    42   19   48 1
    43   20   21 1
    44   20   49 1
    45   20   50 1
    46   21   26 ar
    47   21   22 ar
    48   22   23 ar
    49   22   51 1
    50   23   24 ar
    51   23   52 1
    52   24   25 ar
    53   24   53 1
    54   25   26 ar
    55   25   54 1
    56   26   55 1
@<TRIPOS>MOLECULE
CHEMBL148446
   69    72     0     0     0
SMALL
USER_CHARGES

@<TRIPOS>ATOM
      1 C1         -2.7212    1.2318    2.7290 C.3       1 <0>         0.0207
      2 O1         -1.5922    1.1467    1.8571 O.3       1 <0>        -0.2978
      3 C2         -0.4162    0.7424    2.4074 C.ar      1 <0>         0.1372
      4 C3         -0.3548    0.4307    3.7508 C.ar      1 <0>        -0.1659
      5 C4          0.8571    0.0139    4.3168 C.ar      1 <0>        -0.0993
      6 C5          2.0028   -0.0850    3.5165 C.ar      1 <0>        -0.1727
      7 C6          1.9339    0.2283    2.1739 C.ar      1 <0>         0.1399
      8 C7          0.7248    0.6377    1.6129 C.ar      1 <0>         0.0723
      9 O2          0.6595    0.9397    0.2906 O.3       1 <0>        -0.3112
     10 C8          0.9219    2.2949   -0.0791 C.3       1 <0>         0.0359
     11 O3          3.0455    0.1325    1.3963 O.3       1 <0>        -0.2974
     12 C9          4.2489   -0.2984    2.0350 C.3       1 <0>         0.0225
     13 C10         0.9266   -0.3186    5.7476 C.2       1 <0>         0.4054
     14 O4         -0.0405   -0.1405    6.4599 O.2       1 <0>        -0.4084
     15 C11         2.1856   -0.8747    6.3241 C.2       1 <0>         0.4893
     16 O5          2.4021   -2.0678    6.2714 O.2       1 <0>        -0.4730
     17 N1          3.0824   -0.0521    6.9034 N.am      1 <0>        -0.5944
     18 C12         2.7833    1.3754    7.0811 C.3       1 <0>         0.1077
     19 C13         3.9188    2.1977    6.4637 C.3       1 <0>        -0.1391
     20 C14         5.2522    1.7547    7.0701 C.3       1 <0>        -0.1185
     21 C15         5.4952    0.2782    6.7489 C.3       1 <0>        -0.1232
     22 C16         4.3753   -0.5670    7.3747 C.3       1 <0>         0.1545
     23 C17         4.5301   -2.0056    6.9534 C.2       1 <0>         0.4680
     24 O6          4.3255   -2.3245    5.8061 O.2       1 <0>        -0.4730
     25 O7          4.8951   -2.9327    7.8529 O.3       1 <0>        -0.3510
     26 C18         5.0226   -4.2766    7.3841 C.3       1 <0>         0.0704
     27 C19         5.4429   -5.1832    8.5427 C.3       1 <0>        -0.1115
     28 C20         5.5794   -6.6220    8.0407 C.3       1 <0>        -0.0396
     29 C21         5.9933   -7.5150    9.1819 C.2       1 <0>        -0.1692
     30 C22         7.2465   -7.8778    9.4979 C.2       1 <0>         0.0550
     31 N2          7.2330   -8.6949   10.5954 N.pl3     1 <0>        -0.5959
     32 H1          8.0189   -9.0839   11.0102 H         1 <0>         0.4162
     33 C23         5.9379   -8.8826   11.0234 C.ar      1 <0>         0.0948
     34 C24         5.1049   -8.1466   10.1606 C.ar      1 <0>        -0.1017
     35 C25         3.7233   -8.1457   10.3593 C.ar      1 <0>        -0.0706
     36 C26         3.1863   -8.8579   11.3948 C.ar      1 <0>        -0.1460
     37 C27         4.0039   -9.5821   12.2511 C.ar      1 <0>        -0.0980
     38 C28         5.3694   -9.6044   12.0676 C.ar      1 <0>        -0.1316
     39 H2         -2.5112    1.9439    3.5270 H         1 <0>         0.0599
     40 H3         -3.5920    1.5651    2.1644 H         1 <0>         0.1077
     41 H4         -2.9216    0.2511    3.1606 H         1 <0>         0.0610
     42 H5         -1.2399    0.5085    4.3648 H         1 <0>         0.1504
     43 H6          2.9387   -0.4057    3.9495 H         1 <0>         0.1464
     44 H7          0.8369    2.3994   -1.1607 H         1 <0>         0.0970
     45 H8          0.1995    2.9505    0.4071 H         1 <0>         0.0476
     46 H9          1.9294    2.5685    0.2344 H         1 <0>         0.0474
     47 H10         4.1004   -1.2922    2.4573 H         1 <0>         0.0640
     48 H11         5.0567   -0.3312    1.3039 H         1 <0>         0.1068
     49 H12         4.5077    0.3997    2.8312 H         1 <0>         0.0559
     50 H13         1.8445    1.6168    6.5827 H         1 <0>         0.0853
     51 H14         2.7040    1.6025    8.1442 H         1 <0>         0.0869
     52 H15         3.9386    2.0385    5.3855 H         1 <0>         0.0720
     53 H16         3.7575    3.2552    6.6728 H         1 <0>         0.0872
     54 H17         6.0593    2.3552    6.6505 H         1 <0>         0.0796
     55 H18         5.2227    1.8911    8.1511 H         1 <0>         0.0740
     56 H19         5.5002    0.1371    5.6681 H         1 <0>         0.0798
     57 H20         6.4559   -0.0304    7.1611 H         1 <0>         0.0894
     58 H21         4.4232   -0.4950    8.4612 H         1 <0>         0.1126
     59 H22         4.0658   -4.6150    6.9865 H         1 <0>         0.0710
     60 H23         5.7773   -4.3173    6.5986 H         1 <0>         0.0658
     61 H24         6.3997   -4.8448    8.9402 H         1 <0>         0.0729
     62 H25         4.6882   -5.1424    9.3281 H         1 <0>         0.0745
     63 H26         4.6225   -6.9605    7.6432 H         1 <0>         0.0739
     64 H27         6.3340   -6.6628    7.2553 H         1 <0>         0.0730
     65 H28         8.1339   -7.5706    8.9646 H         1 <0>         0.1697
     66 H29         3.0809   -7.5839    9.6974 H         1 <0>         0.1208
     67 H30         2.1172   -8.8569   11.5481 H         1 <0>         0.1223
     68 H31         3.5648  -10.1394   13.0653 H         1 <0>         0.1250
     69 H32         5.9973  -10.1700   12.7401 H         1 <0>         0.1193
@<TRIPOS>BOND
     1    1    2 1
     2    1   39 1
     3    1   40 1
     4    1   41 1
     5    2    3 1
     6    3    8 ar
     7    3    4 ar
     8    4    5 ar
     9    4   42 1
    10    5    6 ar
    11    5   13 1
    12    6    7 ar
    13    6   43 1
    14    7    8 ar
    15    7   11 1
    16    8    9 1
    17    9   10 1
    18   10   44 1
    19   10   45 1
    20   10   46 1
    21   11   12 1
    22   12   47 1
    23   12   48 1
    24   12   49 1
    25   13   14 2
    26   13   15 1
    27   15   16 2
    28   15   17 am
    29   17   22 1
    30   17   18 1
    31   18   19 1
    32   18   50 1
    33   18   51 1
    34   19   20 1
    35   19   52 1
    36   19   53 1
    37   20   21 1
    38   20   54 1
    39   20   55 1
    40   21   22 1
    41   21   56 1
    42   21   57 1
    43   22   23 1
    44   22   58 1
    45   23   24 2
    46   23   25 1
    47   25   26 1
    48   26   27 1
    49   26   59 1
    50   26   60 1
    51   27   28 1
    52   27   61 1
    53   27   62 1
    54   28   29 1
    55   28   63 1
    56   28   64 1
    57   29   34 1
    58   29   30 2
    59   30   31 1
    60   30   65 1
    61   31   32 1
    62   31   33 1
    63   33   38 ar
    64   33   34 ar
    65   34   35 ar
    66   35   36 ar
    67   35   66 1
    68   36   37 ar
    69   36   67 1
    70   37   38 ar
    71   37   68 1
    72   38   69 1
@<TRIPOS>MOLECULE
CHEMBL148446__1
   69    72     0     0     0
SMALL
USER_CHARGES

@<TRIPOS>ATOM
      1 C1          5.9075    2.2317   -0.6891 C.3       1 <0>         0.0203
      2 O1          7.1423    1.8529   -0.0777 O.3       1 <0>        -0.2973
      3 C2          7.0705    1.2669    1.1474 C.ar      1 <0>         0.1393
      4 C3          5.8417    1.0579    1.7406 C.ar      1 <0>        -0.1651
      5 C4          5.7686    0.4537    3.0025 C.ar      1 <0>        -0.0967
      6 C5          6.9439    0.0638    3.6579 C.ar      1 <0>        -0.1775
      7 C6          8.1692    0.2760    3.0586 C.ar      1 <0>         0.1412
      8 C7          8.2378    0.8728    1.8003 C.ar      1 <0>         0.0722
      9 O2          9.4445    1.0749    1.2114 O.3       1 <0>        -0.3111
     10 C8         10.0988    2.3161    1.4821 C.3       1 <0>         0.0356
     11 O3          9.3106   -0.1021    3.6940 O.3       1 <0>        -0.2969
     12 C9          9.1665   -0.7126    4.9781 C.3       1 <0>         0.0216
     13 C10         4.4614    0.2297    3.6379 C.2       1 <0>         0.4033
     14 O4          3.4512    0.6524    3.1135 O.2       1 <0>        -0.4046
     15 C11         4.3766   -0.5171    4.9271 C.2       1 <0>         0.4893
     16 O5          4.3251   -1.7297    4.9238 O.2       1 <0>        -0.4753
     17 N1          4.3572    0.1550    6.0952 N.am      1 <0>        -0.5923
     18 C12         4.3113    1.6235    6.1132 C.3       1 <0>         0.1062
     19 C13         3.1305    2.0693    6.9813 C.3       1 <0>        -0.1391
     20 C14         3.2489    1.4271    8.3654 C.3       1 <0>        -0.1172
     21 C15         3.1998   -0.0964    8.2286 C.3       1 <0>        -0.1278
     22 C16         4.3753   -0.5670    7.3747 C.3       1 <0>         0.1568
     23 C17         4.2522   -2.0474    7.1211 C.2       1 <0>         0.4644
     24 O6          3.3069   -2.4781    6.5042 O.2       1 <0>        -0.4664
     25 O7          5.1928   -2.8875    7.5807 O.3       1 <0>        -0.3538
     26 C18         5.0122   -4.2777    7.3039 C.3       1 <0>         0.0696
     27 C19         6.1752   -5.0721    7.9018 C.3       1 <0>        -0.1103
     28 C20         5.9818   -6.5606    7.6053 C.3       1 <0>        -0.0402
     29 C21         7.1272   -7.3430    8.1943 C.2       1 <0>        -0.1694
     30 C22         8.2470   -7.7207    7.5577 C.2       1 <0>         0.0557
     31 N2          9.0585   -8.4150    8.4131 N.pl3     1 <0>        -0.5957
     32 H1          9.9227   -8.7893    8.1809 H         1 <0>         0.4164
     33 C23         8.4656   -8.5033    9.6527 C.ar      1 <0>         0.0947
     34 C24         7.2326   -7.8301    9.5718 C.ar      1 <0>        -0.1014
     35 C25         6.4068   -7.7519   10.6945 C.ar      1 <0>        -0.0709
     36 C26         6.8025   -8.3273   11.8692 C.ar      1 <0>        -0.1461
     37 C27         8.0195   -8.9888   11.9553 C.ar      1 <0>        -0.0985
     38 C28         8.8459   -9.0860   10.8569 C.ar      1 <0>        -0.1311
     39 H2          5.3912    2.9490   -0.0511 H         1 <0>         0.0604
     40 H3          6.1070    2.6862   -1.6595 H         1 <0>         0.1082
     41 H4          5.2825    1.3488   -0.8230 H         1 <0>         0.0614
     42 H5          4.9377    1.3600    1.2327 H         1 <0>         0.1512
     43 H6          6.8913   -0.4019    4.6309 H         1 <0>         0.1409
     44 H7         11.0504    2.3486    0.9515 H         1 <0>         0.0973
     45 H8          9.4680    3.1398    1.1477 H         1 <0>         0.0479
     46 H9         10.2770    2.4068    2.5536 H         1 <0>         0.0478
     47 H10         8.5693   -1.6195    4.8842 H         1 <0>         0.0605
     48 H11        10.1506   -0.9648    5.3729 H         1 <0>         0.1083
     49 H12         8.6697   -0.0189    5.6564 H         1 <0>         0.0583
     50 H13         5.2396    2.0129    6.5311 H         1 <0>         0.0857
     51 H14         4.1801    1.9975    5.0978 H         1 <0>         0.0861
     52 H15         3.1420    3.1546    7.0817 H         1 <0>         0.0869
     53 H16         2.1968    1.7565    6.5139 H         1 <0>         0.0747
     54 H17         4.1942    1.7204    8.8221 H         1 <0>         0.0727
     55 H18         2.4232    1.7621    8.9931 H         1 <0>         0.0796
     56 H19         3.2607   -0.5525    9.2167 H         1 <0>         0.0889
     57 H20         2.2655   -0.3888    7.7494 H         1 <0>         0.0831
     58 H21         5.3090   -0.3601    7.8977 H         1 <0>         0.1117
     59 H22         4.0753   -4.6174    7.7452 H         1 <0>         0.0659
     60 H23         4.9830   -4.4326    6.2253 H         1 <0>         0.0704
     61 H24         7.1121   -4.7324    7.4604 H         1 <0>         0.0722
     62 H25         6.2044   -4.9172    8.9803 H         1 <0>         0.0743
     63 H26         5.0448   -6.9002    8.0467 H         1 <0>         0.0737
     64 H27         5.9525   -6.7154    6.5268 H         1 <0>         0.0734
     65 H28         8.4738   -7.5084    6.5233 H         1 <0>         0.1696
     66 H29         5.4587   -7.2381   10.6351 H         1 <0>         0.1205
     67 H30         6.1632   -8.2664   12.7375 H         1 <0>         0.1222
     68 H31         8.3188   -9.4379   12.8908 H         1 <0>         0.1249
     69 H32         9.7916   -9.6019   10.9344 H         1 <0>         0.1192
@<TRIPOS>BOND
     1    1    2 1
     2    1   39 1
     3    1   40 1
     4    1   41 1
     5    2    3 1
     6    3    8 ar
     7    3    4 ar
     8    4    5 ar
     9    4   42 1
    10    5    6 ar
    11    5   13 1
    12    6    7 ar
    13    6   43 1
    14    7    8 ar
    15    7   11 1
    16    8    9 1
    17    9   10 1
    18   10   44 1
    19   10   45 1
    20   10   46 1
    21   11   12 1
    22   12   47 1
    23   12   48 1
    24   12   49 1
    25   13   14 2
    26   13   15 1
    27   15   16 2
    28   15   17 am
    29   17   22 1
    30   17   18 1
    31   18   19 1
    32   18   50 1
    33   18   51 1
    34   19   20 1
    35   19   52 1
    36   19   53 1
    37   20   21 1
    38   20   54 1
    39   20   55 1
    40   21   22 1
    41   21   56 1
    42   21   57 1
    43   22   23 1
    44   22   58 1
    45   23   24 2
    46   23   25 1
    47   25   26 1
    48   26   27 1
    49   26   59 1
    50   26   60 1
    51   27   28 1
    52   27   61 1
    53   27   62 1
    54   28   29 1
    55   28   63 1
    56   28   64 1
    57   29   34 1
    58   29   30 2
    59   30   31 1
    60   30   65 1
    61   31   32 1
    62   31   33 1
    63   33   38 ar
    64   33   34 ar
    65   34   35 ar
    66   35   36 ar
    67   35   66 1
    68   36   37 ar
    69   36   67 1
    70   37   38 ar
    71   37   68 1
    72   38   69 1
@<TRIPOS>MOLECULE
CHEMBL381637
   71    75     0     0     0
SMALL
USER_CHARGES

@<TRIPOS>ATOM
      1 C1          0.4155    1.6894   -0.1326 C.3       1 <0>         0.0250
      2 O1          0.6008    0.2811   -0.2887 O.3       1 <0>        -0.3096
      3 C2          1.1623   -0.3860    0.7523 C.ar      1 <0>         0.1799
      4 C3          1.3422   -1.7612    0.6864 C.ar      1 <0>        -0.1782
      5 C4          1.9543   -2.4209    1.7268 C.ar      1 <0>         0.0022
      6 C5          2.4223   -1.7297    2.8391 C.ar      1 <0>        -0.1661
      7 C6          2.1352   -0.3836    2.9544 C.ar      1 <0>         0.1910
      8 C7          1.5287    0.2942    1.9006 C.ar      1 <0>        -0.3049
      9 O2          2.3679    0.3049    4.1042 O.3       1 <0>        -0.3097
     10 C8          2.0317    1.6938    4.1081 C.3       1 <0>         0.0236
     11 C9          3.2509   -2.4917    3.8356 C.3       1 <0>         0.2045
     12 C10         4.1164   -1.5753    4.6840 C.3       1 <0>         0.1442
     13 C11         4.9498   -0.6038    3.8609 C.3       1 <0>        -0.1189
     14 C12         6.0501   -1.3162    3.0782 C.3       1 <0>        -0.1314
     15 C13         6.9271   -2.1313    4.0352 C.3       1 <0>        -0.1251
     16 C14         6.0190   -3.1763    4.7156 C.3       1 <0>         0.1116
     17 N1          5.0225   -2.4165    5.4968 N.am      1 <0>        -0.5981
     18 C15         4.9394   -2.4812    6.8405 C.2       1 <0>         0.5022
     19 O3          4.1671   -1.7600    7.4357 O.2       1 <0>        -0.4771
     20 C16         5.8063   -3.4496    7.6033 C.3       1 <0>         0.3362
     21 C17         5.2281   -3.6660    8.9780 C.ar      1 <0>        -0.0716
     22 C18         5.6119   -2.8477   10.0238 C.ar      1 <0>        -0.1828
     23 C19         5.0826   -3.0439   11.2904 C.ar      1 <0>         0.1518
     24 C20         4.1646   -4.0645   11.5074 C.ar      1 <0>         0.0539
     25 C21         3.7809   -4.8847   10.4531 C.ar      1 <0>         0.1518
     26 C22         4.3110   -4.6786    9.1884 C.ar      1 <0>        -0.1944
     27 O4          2.8829   -5.8848   10.6604 O.3       1 <0>        -0.2967
     28 C23         2.5347   -6.6883    9.5312 C.3       1 <0>         0.0215
     29 O5          3.6431   -4.2605   12.7491 O.3       1 <0>        -0.3112
     30 C24         2.4416   -3.5551   13.0669 C.3       1 <0>         0.0353
     31 O6          5.4616   -2.2389   12.3189 O.3       1 <0>        -0.2969
     32 C25         6.4091   -1.2109   12.0230 C.3       1 <0>         0.0211
     33 F1          5.8549   -4.6696    6.9204 F         1 <0>        -0.1716
     34 F2          7.0992   -2.9276    7.7180 F         1 <0>        -0.1682
     35 C26         5.2767   -3.8859    3.6139 C.2       1 <0>         0.5165
     36 O7          5.8188   -4.8242    3.0679 O.2       1 <0>        -0.5274
     37 N2          4.0427   -3.5386    3.1970 N.am      1 <0>        -0.5966
     38 C27         3.5333   -4.2991    2.0467 C.3       1 <0>         0.1187
     39 C28         2.0993   -3.9202    1.7086 C.3       1 <0>        -0.0934
     40 H1          1.3811    2.1666    0.0344 H         1 <0>         0.0570
     41 H2         -0.0407    2.0980   -1.0343 H         1 <0>         0.1049
     42 H3         -0.2354    1.8778    0.7213 H         1 <0>         0.0571
     43 H4          1.0039   -2.3132   -0.1789 H         1 <0>         0.1384
     44 H5          1.3506    1.3567    1.9807 H         1 <0>         0.1402
     45 H6          2.6052    2.2086    3.3373 H         1 <0>         0.0573
     46 H7          0.9667    1.8104    3.9073 H         1 <0>         0.0583
     47 H8          2.2667    2.1217    5.0826 H         1 <0>         0.1055
     48 H9          2.5498   -2.9947    4.5185 H         1 <0>         0.0778
     49 H10         3.4804   -1.0193    5.3781 H         1 <0>         0.1337
     50 H11         4.3206   -0.0613    3.1571 H         1 <0>         0.0845
     51 H12         5.4145    0.1229    4.5357 H         1 <0>         0.0735
     52 H13         5.6040   -1.9710    2.3324 H         1 <0>         0.0700
     53 H14         6.6673   -0.5704    2.5724 H         1 <0>         0.0759
     54 H15         7.7134   -2.6354    3.4730 H         1 <0>         0.0917
     55 H16         7.3666   -1.4754    4.7849 H         1 <0>         0.0878
     56 H17         6.5883   -3.8668    5.3352 H         1 <0>         0.1458
     57 H18         6.3254   -2.0549    9.8544 H         1 <0>         0.1445
     58 H19         4.0100   -5.3128    8.3676 H         1 <0>         0.1432
     59 H20         1.8122   -7.4464    9.8336 H         1 <0>         0.1073
     60 H21         2.0971   -6.0575    8.7574 H         1 <0>         0.0577
     61 H22         3.4292   -7.1741    9.1412 H         1 <0>         0.0610
     62 H23         2.1344   -3.8003   14.0835 H         1 <0>         0.0958
     63 H24         2.6188   -2.4824   12.9896 H         1 <0>         0.0468
     64 H25         1.6552   -3.8446   12.3699 H         1 <0>         0.0464
     65 H26         6.6242   -0.6435   12.9285 H         1 <0>         0.1068
     66 H27         7.3287   -1.6611   11.6493 H         1 <0>         0.0606
     67 H28         5.9971   -0.5440   11.2657 H         1 <0>         0.0596
     68 H29         4.1680   -4.1047    1.1814 H         1 <0>         0.0739
     69 H30         3.5737   -5.3648    2.2798 H         1 <0>         0.0840
     70 H31         1.4222   -4.3559    2.4448 H         1 <0>         0.0917
     71 H32         1.8427   -4.2976    0.7182 H         1 <0>         0.1003
@<TRIPOS>BOND
     1    1    2 1
     2    1   40 1
     3    1   41 1
     4    1   42 1
     5    2    3 1
     6    3    8 ar
     7    3    4 ar
     8    4    5 ar
     9    4   43 1
    10    5   39 1
    11    5    6 ar
    12    6    7 ar
    13    6   11 1
    14    7    8 ar
    15    7    9 1
    16    8   44 1
    17    9   10 1
    18   10   45 1
    19   10   46 1
    20   10   47 1
    21   11   37 1
    22   11   12 1
    23   11   48 1
    24   12   17 1
    25   12   13 1
    26   12   49 1
    27   13   14 1
    28   13   50 1
    29   13   51 1
    30   14   15 1
    31   14   52 1
    32   14   53 1
    33   15   16 1
    34   15   54 1
    35   15   55 1
    36   16   17 1
    37   16   35 1
    38   16   56 1
    39   17   18 am
    40   18   19 2
    41   18   20 1
    42   20   21 1
    43   20   33 1
    44   20   34 1
    45   21   26 ar
    46   21   22 ar
    47   22   23 ar
    48   22   57 1
    49   23   24 ar
    50   23   31 1
    51   24   25 ar
    52   24   29 1
    53   25   26 ar
    54   25   27 1
    55   26   58 1
    56   27   28 1
    57   28   59 1
    58   28   60 1
    59   28   61 1
    60   29   30 1
    61   30   62 1
    62   30   63 1
    63   30   64 1
    64   31   32 1
    65   32   65 1
    66   32   66 1
    67   32   67 1
    68   35   36 2
    69   35   37 am
    70   37   38 1
    71   38   39 1
    72   38   68 1
    73   38   69 1
    74   39   70 1
    75   39   71 1
@<TRIPOS>MOLECULE
CHEMBL381637__1
   71    75     0     0     0
SMALL
USER_CHARGES

@<TRIPOS>ATOM
      1 C1          0.4760    2.2897    0.1431 C.3       1 <0>         0.0256
      2 O1          0.4279    0.8827   -0.1018 O.3       1 <0>        -0.3115
      3 C2          0.9255    0.0704    0.8675 C.ar      1 <0>         0.1746
      4 C3          0.9160   -1.3037    0.6944 C.ar      1 <0>        -0.1882
      5 C4          1.4179   -2.1444    1.6787 C.ar      1 <0>         0.0096
      6 C5          1.9231   -1.6035    2.8416 C.ar      1 <0>        -0.1683
      7 C6          1.9419   -0.2223    3.0155 C.ar      1 <0>         0.1803
      8 C7          1.4490    0.6151    2.0296 C.ar      1 <0>        -0.2927
      9 O2          2.4521    0.3075    4.1583 O.3       1 <0>        -0.3042
     10 C8          2.4419    1.7317    4.2742 C.3       1 <0>         0.0201
     11 C9          2.4483   -2.4691    3.9552 C.3       1 <0>         0.1980
     12 C10         3.6895   -1.8579    4.5810 C.3       1 <0>         0.1175
     13 C11         3.6487   -2.0611    6.1012 C.3       1 <0>        -0.1256
     14 C12         3.6540   -3.5605    6.4073 C.3       1 <0>        -0.1319
     15 C13         4.9214   -4.2006    5.8374 C.3       1 <0>        -0.1224
     16 C14         4.9598   -3.9870    4.3196 C.3       1 <0>         0.1097
     17 N1          4.8937   -2.5315    4.0635 N.am      1 <0>        -0.5899
     18 C15         5.8647   -1.8693    3.4040 C.2       1 <0>         0.5015
     19 O3          5.7204   -0.6967    3.1297 O.2       1 <0>        -0.4774
     20 C16         7.1297   -2.5858    3.0072 C.3       1 <0>         0.3350
     21 C17         8.2121   -1.5756    2.7260 C.ar      1 <0>        -0.0700
     22 C18         8.3665   -1.0681    1.4496 C.ar      1 <0>        -0.1830
     23 C19         9.3615   -0.1388    1.1866 C.ar      1 <0>         0.1519
     24 C20        10.2038    0.2826    2.2086 C.ar      1 <0>         0.0532
     25 C21        10.0450   -0.2297    3.4907 C.ar      1 <0>         0.1515
     26 C22         9.0442   -1.1548    3.7465 C.ar      1 <0>        -0.1944
     27 O4         10.8667    0.1795    4.4942 O.3       1 <0>        -0.2969
     28 C23        10.6456   -0.3892    5.7864 C.3       1 <0>         0.0216
     29 O5         11.1819    1.1942    1.9545 O.3       1 <0>        -0.3110
     30 C24        10.8400    2.5730    2.1101 C.3       1 <0>         0.0355
     31 O6          9.5133    0.3593   -0.0697 O.3       1 <0>        -0.2968
     32 C25         8.6123   -0.1192   -1.0704 C.3       1 <0>         0.0211
     33 F1          7.5358   -3.4266    4.0490 F         1 <0>        -0.1729
     34 F2          6.8932   -3.3479    1.8581 F         1 <0>        -0.1689
     35 C26         3.7137   -4.5842    3.7105 C.2       1 <0>         0.5225
     36 O7          3.7006   -5.7591    3.4098 O.2       1 <0>        -0.5269
     37 N2          2.6214   -3.8367    3.4973 N.am      1 <0>        -0.5949
     38 C27         1.5107   -4.4209    2.7151 C.3       1 <0>         0.1037
     39 C28         1.3911   -3.6268    1.4155 C.3       1 <0>        -0.0989
     40 H1          1.5120    2.5993    0.2813 H         1 <0>         0.0562
     41 H2          0.0483    2.8213   -0.7070 H         1 <0>         0.1041
     42 H3         -0.0955    2.5219    1.0417 H         1 <0>         0.0565
     43 H4          0.5140   -1.7254   -0.2150 H         1 <0>         0.1347
     44 H5          1.4686    1.6862    2.1668 H         1 <0>         0.1387
     45 H6          3.0264    2.1664    3.4633 H         1 <0>         0.0586
     46 H7          1.4153    2.0936    4.2165 H         1 <0>         0.0582
     47 H8          2.8761    2.0215    5.2310 H         1 <0>         0.1044
     48 H9          1.6839   -2.4863    4.7320 H         1 <0>         0.0890
     49 H10         3.7339   -0.7948    4.3442 H         1 <0>         0.1590
     50 H11         4.5227   -1.5936    6.5548 H         1 <0>         0.0779
     51 H12         2.7423   -1.6100    6.5048 H         1 <0>         0.0873
     52 H13         3.6261   -3.7102    7.4866 H         1 <0>         0.0800
     53 H14         2.7781   -4.0258    5.9550 H         1 <0>         0.0685
     54 H15         5.7980   -3.7390    6.2920 H         1 <0>         0.0868
     55 H16         4.9186   -5.2688    6.0545 H         1 <0>         0.0912
     56 H17         5.8633   -4.4183    3.8885 H         1 <0>         0.1387
     57 H18         7.7116   -1.3961    0.6560 H         1 <0>         0.1432
     58 H19         8.9172   -1.5502    4.7435 H         1 <0>         0.1439
     59 H20        11.3672    0.0216    6.4924 H         1 <0>         0.1070
     60 H21         9.6354   -0.1517    6.1198 H         1 <0>         0.0578
     61 H22        10.7654   -1.4712    5.7325 H         1 <0>         0.0609
     62 H23        11.7072    3.1909    1.8773 H         1 <0>         0.0959
     63 H24        10.0232    2.8234    1.4332 H         1 <0>         0.0462
     64 H25        10.5288    2.7563    3.1385 H         1 <0>         0.0462
     65 H26         8.8420    0.3569   -2.0237 H         1 <0>         0.1072
     66 H27         8.7190   -1.1995   -1.1688 H         1 <0>         0.0608
     67 H28         7.5887    0.1201   -0.7822 H         1 <0>         0.0589
     68 H29         1.7259   -5.4657    2.4913 H         1 <0>         0.1092
     69 H30         0.5817   -4.3469    3.2803 H         1 <0>         0.0818
     70 H31         0.4533   -3.8854    0.9239 H         1 <0>         0.0972
     71 H32         2.2213   -3.8882    0.7594 H         1 <0>         0.0876
@<TRIPOS>BOND
     1    1    2 1
     2    1   40 1
     3    1   41 1
     4    1   42 1
     5    2    3 1
     6    3    8 ar
     7    3    4 ar
     8    4    5 ar
     9    4   43 1
    10    5   39 1
    11    5    6 ar
    12    6    7 ar
    13    6   11 1
    14    7    8 ar
    15    7    9 1
    16    8   44 1
    17    9   10 1
    18   10   45 1
    19   10   46 1
    20   10   47 1
    21   11   37 1
    22   11   12 1
    23   11   48 1
    24   12   17 1
    25   12   13 1
    26   12   49 1
    27   13   14 1
    28   13   50 1
    29   13   51 1
    30   14   15 1
    31   14   52 1
    32   14   53 1
    33   15   16 1
    34   15   54 1
    35   15   55 1
    36   16   17 1
    37   16   35 1
    38   16   56 1
    39   17   18 am
    40   18   19 2
    41   18   20 1
    42   20   21 1
    43   20   33 1
    44   20   34 1
    45   21   26 ar
    46   21   22 ar
    47   22   23 ar
    48   22   57 1
    49   23   24 ar
    50   23   31 1
    51   24   25 ar
    52   24   29 1
    53   25   26 ar
    54   25   27 1
    55   26   58 1
    56   27   28 1
    57   28   59 1
    58   28   60 1
    59   28   61 1
    60   29   30 1
    61   30   62 1
    62   30   63 1
    63   30   64 1
    64   31   32 1
    65   32   65 1
    66   32   66 1
    67   32   67 1
    68   35   36 2
    69   35   37 am
    70   37   38 1
    71   38   39 1
    72   38   68 1
    73   38   69 1
    74   39   70 1
    75   39   71 1
@<TRIPOS>MOLECULE
CHEMBL381637__2
   71    75     0     0     0
SMALL
USER_CHARGES

@<TRIPOS>ATOM
      1 C1          0.4487    0.4380   -0.4051 C.3       1 <0>         0.0255
      2 O1          0.5898   -0.9694   -0.2017 O.3       1 <0>        -0.3112
      3 C2          1.1427   -1.3707    0.9730 C.ar      1 <0>         0.1751
      4 C3          1.3150   -2.7198    1.2348 C.ar      1 <0>        -0.1887
      5 C4          1.8811   -3.1424    2.4299 C.ar      1 <0>         0.0095
      6 C5          2.2814   -2.2077    3.3606 C.ar      1 <0>        -0.1692
      7 C6          2.1032   -0.8507    3.1042 C.ar      1 <0>         0.1793
      8 C7          1.5414   -0.4309    1.9108 C.ar      1 <0>        -0.2932
      9 O2          2.4883    0.0674    4.0291 O.3       1 <0>        -0.3040
     10 C8          2.2777    1.4430    3.7044 C.3       1 <0>         0.0203
     11 C9          2.9296   -2.6082    4.6584 C.3       1 <0>         0.1977
     12 C10         2.4372   -1.7404    5.8032 C.3       1 <0>         0.1184
     13 C11         3.6090   -1.4146    6.7385 C.3       1 <0>        -0.1256
     14 C12         4.1548   -2.7155    7.3315 C.3       1 <0>        -0.1316
     15 C13         3.0527   -3.4279    8.1182 C.3       1 <0>        -0.1252
     16 C14         1.8817   -3.7431    7.1800 C.3       1 <0>         0.1079
     17 N1          1.4217   -2.4701    6.5830 N.am      1 <0>        -0.5898
     18 C15         0.1647   -2.0105    6.7412 C.2       1 <0>         0.5022
     19 O3         -0.1380   -0.9146    6.3191 O.2       1 <0>        -0.4781
     20 C16        -0.8649   -2.8585    7.4426 C.3       1 <0>         0.3344
     21 C17        -2.2450   -2.3618    7.0966 C.ar      1 <0>        -0.0703
     22 C18        -2.8431   -1.3896    7.8761 C.ar      1 <0>        -0.1831
     23 C19        -4.1131   -0.9302    7.5614 C.ar      1 <0>         0.1516
     24 C20        -4.7843   -1.4483    6.4603 C.ar      1 <0>         0.0532
     25 C21        -4.1793   -2.4254    5.6789 C.ar      1 <0>         0.1518
     26 C22        -2.9070   -2.8757    5.9974 C.ar      1 <0>        -0.1937
     27 O4         -4.8320   -2.9357    4.6004 O.3       1 <0>        -0.2966
     28 C23        -4.1495   -3.9369    3.8429 C.3       1 <0>         0.0218
     29 O5         -6.0310   -1.0004    6.1484 O.3       1 <0>        -0.3108
     30 C24        -6.1159    0.1182    5.2632 C.3       1 <0>         0.0355
     31 O6         -4.7011    0.0258    8.3295 O.3       1 <0>        -0.2970
     32 C25        -3.9529    0.5122    9.4456 C.3       1 <0>         0.0211
     33 F1         -0.7315   -4.1891    7.0317 F         1 <0>        -0.1718
     34 F2         -0.6728   -2.7762    8.8259 F         1 <0>        -0.1691
     35 C26         2.3851   -4.5924    6.0375 C.2       1 <0>         0.5255
     36 O7          2.4334   -5.7975    6.1657 O.2       1 <0>        -0.5260
     37 N2          2.7795   -4.0353    4.8834 N.am      1 <0>        -0.5956
     38 C27         3.0607   -4.9224    3.7343 C.3       1 <0>         0.1037
     39 C28         2.0226   -4.6249    2.6536 C.3       1 <0>        -0.0984
     40 H1          1.4301    0.9108   -0.3667 H         1 <0>         0.0567
     41 H2         -0.0047    0.6207   -1.3793 H         1 <0>         0.1043
     42 H3         -0.1867    0.8560    0.3756 H         1 <0>         0.0563
     43 H4          1.0054   -3.4503    0.5021 H         1 <0>         0.1347
     44 H5          1.4108    0.6228    1.7131 H         1 <0>         0.1388
     45 H6          2.8300    1.6910    2.7980 H         1 <0>         0.0583
     46 H7          1.2145    1.6193    3.5417 H         1 <0>         0.0585
     47 H8          2.6282    2.0680    4.5258 H         1 <0>         0.1051
     48 H9          3.9966   -2.4113    4.5548 H         1 <0>         0.0893
     49 H10         2.0048   -0.8216    5.4070 H         1 <0>         0.1580
     50 H11         4.3958   -0.9127    6.1754 H         1 <0>         0.0871
     51 H12         3.2636   -0.7645    7.5423 H         1 <0>         0.0787
     52 H13         4.5020   -3.3631    6.5266 H         1 <0>         0.0685
     53 H14         4.9871   -2.4889    7.9979 H         1 <0>         0.0801
     54 H15         3.4449   -4.3557    8.5348 H         1 <0>         0.0919
     55 H16         2.7077   -2.7830    8.9264 H         1 <0>         0.0864
     56 H17         1.0727   -4.2355    7.7195 H         1 <0>         0.1398
     57 H18        -2.3208   -0.9874    8.7316 H         1 <0>         0.1444
     58 H19        -2.4343   -3.6318    5.3881 H         1 <0>         0.1421
     59 H20        -4.7797   -4.2573    3.0132 H         1 <0>         0.1075
     60 H21        -3.2178   -3.5261    3.4540 H         1 <0>         0.0572
     61 H22        -3.9305   -4.7910    4.4837 H         1 <0>         0.0609
     62 H23        -7.1629    0.3723    5.0982 H         1 <0>         0.0959
     63 H24        -5.6003    0.9709    5.7049 H         1 <0>         0.0463
     64 H25        -5.6491   -0.1355    4.3114 H         1 <0>         0.0457
     65 H26        -4.5356    1.2684    9.9718 H         1 <0>         0.1069
     66 H27        -3.7327   -0.3131   10.1228 H         1 <0>         0.0606
     67 H28        -3.0199    0.9523    9.0936 H         1 <0>         0.0593
     68 H29         4.0613   -4.7237    3.3502 H         1 <0>         0.0816
     69 H30         2.9832   -5.9645    4.0442 H         1 <0>         0.1093
     70 H31         1.0599   -5.0336    2.9606 H         1 <0>         0.0871
     71 H32         2.3306   -5.0992    1.7218 H         1 <0>         0.0973
@<TRIPOS>BOND
     1    1    2 1
     2    1   40 1
     3    1   41 1
     4    1   42 1
     5    2    3 1
     6    3    8 ar
     7    3    4 ar
     8    4    5 ar
     9    4   43 1
    10    5   39 1
    11    5    6 ar
    12    6    7 ar
    13    6   11 1
    14    7    8 ar
    15    7    9 1
    16    8   44 1
    17    9   10 1
    18   10   45 1
    19   10   46 1
    20   10   47 1
    21   11   37 1
    22   11   12 1
    23   11   48 1
    24   12   17 1
    25   12   13 1
    26   12   49 1
    27   13   14 1
    28   13   50 1
    29   13   51 1
    30   14   15 1
    31   14   52 1
    32   14   53 1
    33   15   16 1
    34   15   54 1
    35   15   55 1
    36   16   17 1
    37   16   35 1
    38   16   56 1
    39   17   18 am
    40   18   19 2
    41   18   20 1
    42   20   21 1
    43   20   33 1
    44   20   34 1
    45   21   26 ar
    46   21   22 ar
    47   22   23 ar
    48   22   57 1
    49   23   24 ar
    50   23   31 1
    51   24   25 ar
    52   24   29 1
    53   25   26 ar
    54   25   27 1
    55   26   58 1
    56   27   28 1
    57   28   59 1
    58   28   60 1
    59   28   61 1
    60   29   30 1
    61   30   62 1
    62   30   63 1
    63   30   64 1
    64   31   32 1
    65   32   65 1
    66   32   66 1
    67   32   67 1
    68   35   36 2
    69   35   37 am
    70   37   38 1
    71   38   39 1
    72   38   68 1
    73   38   69 1
    74   39   70 1
    75   39   71 1
@<TRIPOS>MOLECULE
CHEMBL381637__3
   71    75     0     0     0
SMALL
USER_CHARGES

@<TRIPOS>ATOM
      1 C1         -0.0173    1.4248    0.0099 C.3       1 <0>         0.0251
      2 O1          0.0021   -0.0041    0.0020 O.3       1 <0>        -0.3095
      3 C2          0.6252   -0.6178    1.0405 C.ar      1 <0>         0.1797
      4 C3          0.7110   -2.0025    1.0869 C.ar      1 <0>        -0.1786
      5 C4          1.3159   -2.6160    2.1610 C.ar      1 <0>         0.0022
      6 C5          1.8245   -1.8741    3.2212 C.ar      1 <0>        -0.1635
      7 C6          1.8189   -0.4951    3.1278 C.ar      1 <0>         0.1901
      8 C7          1.2069    0.1327    2.0475 C.ar      1 <0>        -0.3050
      9 O2          2.4492    0.2914    4.0406 O.3       1 <0>        -0.3098
     10 C8          2.3751    1.7044    3.8407 C.3       1 <0>         0.0236
     11 C9          2.3333   -2.6220    4.4196 C.3       1 <0>         0.2033
     12 C10         2.3682   -1.7577    5.6698 C.3       1 <0>         0.1435
     13 C11         1.0334   -1.0957    5.9709 C.3       1 <0>        -0.1172
     14 C12        -0.0183   -2.0943    6.4496 C.3       1 <0>        -0.1316
     15 C13         0.5145   -2.8916    7.6444 C.3       1 <0>        -0.1210
     16 C14         1.7664   -3.6541    7.1612 C.3       1 <0>         0.1066
     17 N1          2.7599   -2.6185    6.8075 N.am      1 <0>        -0.5979
     18 C15         3.9250   -2.4639    7.4650 C.2       1 <0>         0.5023
     19 O3          4.6993   -1.5927    7.1300 O.2       1 <0>        -0.4789
     20 C16         4.2666   -3.3736    8.6169 C.3       1 <0>         0.3372
     21 C17         5.2333   -2.6756    9.5386 C.ar      1 <0>        -0.0728
     22 C18         6.5944   -2.7986    9.3312 C.ar      1 <0>        -0.1813
     23 C19         7.4871   -2.1583   10.1773 C.ar      1 <0>         0.1519
     24 C20         7.0117   -1.3918   11.2346 C.ar      1 <0>         0.0539
     25 C21         5.6425   -1.2702   11.4393 C.ar      1 <0>         0.1511
     26 C22         4.7563   -1.9095   10.5856 C.ar      1 <0>        -0.1953
     27 O4          5.1723   -0.5212   12.4725 O.3       1 <0>        -0.2969
     28 C23         3.7535   -0.4409   12.6226 C.3       1 <0>         0.0216
     29 O5          7.8847   -0.7621   12.0675 O.3       1 <0>        -0.3112
     30 C24         8.2797    0.5641   11.7110 C.3       1 <0>         0.0354
     31 O6          8.8261   -2.2807    9.9731 O.3       1 <0>        -0.2968
     32 C25         9.2429   -3.0846    8.8676 C.3       1 <0>         0.0208
     33 F1          3.1003   -3.6938    9.3200 F         1 <0>        -0.1716
     34 F2          4.8528   -4.5458    8.1274 F         1 <0>        -0.1667
     35 C26         1.3760   -4.3583    5.8871 C.2       1 <0>         0.5132
     36 O7          0.8309   -5.4401    5.9755 O.2       1 <0>        -0.5293
     37 N2          1.5937   -3.8589    4.6544 N.am      1 <0>        -0.5961
     38 C27         1.0361   -4.6487    3.5474 C.3       1 <0>         0.1179
     39 C28         1.4731   -4.1138    2.1924 C.3       1 <0>        -0.0935
     40 H1          1.0053    1.8021    0.0021 H         1 <0>         0.0571
     41 H2         -0.5445    1.7859   -0.8732 H         1 <0>         0.1049
     42 H3         -0.5275    1.7763    0.9067 H         1 <0>         0.0570
     43 H4          0.3030   -2.5994    0.2844 H         1 <0>         0.1383
     44 H5          1.1884    1.2115    1.9973 H         1 <0>         0.1403
     45 H6          2.8191    1.9590    2.8783 H         1 <0>         0.0582
     46 H7          1.3316    2.0190    3.8539 H         1 <0>         0.0574
     47 H8          2.9180    2.2130    4.6373 H         1 <0>         0.1052
     48 H9          3.3738   -2.9122    4.2021 H         1 <0>         0.0783
     49 H10         3.1442   -0.9963    5.5629 H         1 <0>         0.1345
     50 H11         1.1748   -0.3355    6.7451 H         1 <0>         0.0732
     51 H12         0.6500   -0.6014    5.0758 H         1 <0>         0.0833
     52 H13        -0.9154   -1.5502    6.7578 H         1 <0>         0.0755
     53 H14        -0.2806   -2.7716    5.6390 H         1 <0>         0.0696
     54 H15         0.7842   -2.2140    8.4539 H         1 <0>         0.0866
     55 H16        -0.2401   -3.6007    7.9859 H         1 <0>         0.0913
     56 H17         2.1398   -4.3441    7.9139 H         1 <0>         0.1525
     57 H18         6.9630   -3.3945    8.5094 H         1 <0>         0.1447
     58 H19         3.6920   -1.8120   10.7414 H         1 <0>         0.1441
     59 H20         3.5139    0.1853   13.4820 H         1 <0>         0.1069
     60 H21         3.3171   -0.0062   11.7233 H         1 <0>         0.0577
     61 H22         3.3473   -1.4405   12.7769 H         1 <0>         0.0610
     62 H23         8.9752    0.9489   12.4569 H         1 <0>         0.0959
     63 H24         8.7652    0.5487   10.7352 H         1 <0>         0.0468
     64 H25         7.3999    1.2063   11.6690 H         1 <0>         0.0462
     65 H26        10.3317   -3.0982    8.8183 H         1 <0>         0.1071
     66 H27         8.8723   -4.1014    8.9975 H         1 <0>         0.0607
     67 H28         8.8426   -2.6673    7.9436 H         1 <0>         0.0601
     68 H29         1.3729   -5.6826    3.6459 H         1 <0>         0.0854
     69 H30        -0.0525   -4.6295    3.6073 H         1 <0>         0.0726
     70 H31         0.8589   -4.5580    1.4089 H         1 <0>         0.1003
     71 H32         2.5192   -4.3702    2.0166 H         1 <0>         0.0923
@<TRIPOS>BOND
     1    1    2 1
     2    1   40 1
     3    1   41 1
     4    1   42 1
     5    2    3 1
     6    3    8 ar
     7    3    4 ar
     8    4    5 ar
     9    4   43 1
    10    5   39 1
    11    5    6 ar
    12    6    7 ar
    13    6   11 1
    14    7    8 ar
    15    7    9 1
    16    8   44 1
    17    9   10 1
    18   10   45 1
    19   10   46 1
    20   10   47 1
    21   11   37 1
    22   11   12 1
    23   11   48 1
    24   12   17 1
    25   12   13 1
    26   12   49 1
    27   13   14 1
    28   13   50 1
    29   13   51 1
    30   14   15 1
    31   14   52 1
    32   14   53 1
    33   15   16 1
    34   15   54 1
    35   15   55 1
    36   16   17 1
    37   16   35 1
    38   16   56 1
    39   17   18 am
    40   18   19 2
    41   18   20 1
    42   20   21 1
    43   20   33 1
    44   20   34 1
    45   21   26 ar
    46   21   22 ar
    47   22   23 ar
    48   22   57 1
    49   23   24 ar
    50   23   31 1
    51   24   25 ar
    52   24   29 1
    53   25   26 ar
    54   25   27 1
    55   26   58 1
    56   27   28 1
    57   28   59 1
    58   28   60 1
    59   28   61 1
    60   29   30 1
    61   30   62 1
    62   30   63 1
    63   30   64 1
    64   31   32 1
    65   32   65 1
    66   32   66 1
    67   32   67 1
    68   35   36 2
    69   35   37 am
    70   37   38 1
    71   38   39 1
    72   38   68 1
    73   38   69 1
    74   39   70 1
    75   39   71 1
@<TRIPOS>MOLECULE
CHEMBL295091
   35    37     0     0     0
SMALL
USER_CHARGES

@<TRIPOS>ATOM
      1 C1         -0.0139    1.3356   -0.5029 C.ar      1 <0>        -0.0927
      2 C2          0.5199    1.1355    0.7572 C.ar      1 <0>        -0.1282
      3 C3          1.7248    0.4767    0.9017 C.ar      1 <0>        -0.0708
      4 C4          2.4009    0.0141   -0.2209 C.ar      1 <0>        -0.1183
      5 C5          1.8612    0.2166   -1.4855 C.ar      1 <0>        -0.0726
      6 C6          0.6561    0.8767   -1.6223 C.ar      1 <0>        -0.1278
      7 S1          3.9390   -0.8266   -0.0415 S.3       1 <0>        -0.1396
      8 C7          3.4700   -2.5726    0.1075 C.3       1 <0>        -0.0248
      9 C8          2.5950   -2.7574    1.3470 C.3       1 <0>        -0.1103
     10 C9          2.2227   -4.2341    1.4951 C.3       1 <0>        -0.1550
     11 C10         3.4985   -5.0638    1.6536 C.3       1 <0>        -0.1190
     12 C11         4.3778   -4.8907    0.4155 C.3       1 <0>        -0.0740
     13 C12         4.7315   -3.4267    0.2276 C.3       1 <0>        -0.0949
     14 C13         3.6296   -5.3955   -0.8218 C.3       1 <0>        -0.1701
     15 C14         2.4461   -4.4876   -1.0732 C.2       1 <0>         0.3819
     16 O1          1.3361   -4.9412   -1.2163 O.2       1 <0>        -0.4612
     17 C15         2.6791   -2.9927   -1.1348 C.3       1 <0>        -0.1652
     18 H1         -0.9585    1.8476   -0.6126 H         1 <0>         0.1274
     19 H2         -0.0061    1.4953    1.6291 H         1 <0>         0.1286
     20 H3          2.1414    0.3214    1.8859 H         1 <0>         0.1308
     21 H4          2.3839   -0.1415   -2.3601 H         1 <0>         0.1303
     22 H5          0.2363    1.0348   -2.6048 H         1 <0>         0.1288
     23 H6          3.1434   -2.4308    2.2305 H         1 <0>         0.0797
     24 H7          1.6875   -2.1628    1.2427 H         1 <0>         0.0669
     25 H8          1.5926   -4.3639    2.3750 H         1 <0>         0.0720
     26 H9          1.6821   -4.5638    0.6079 H         1 <0>         0.0852
     27 H10         4.0433   -4.7274    2.5358 H         1 <0>         0.0716
     28 H11         3.2359   -6.1154    1.7683 H         1 <0>         0.0695
     29 H12         5.2913   -5.4727    0.5375 H         1 <0>         0.0923
     30 H13         5.3285   -3.3178   -0.6778 H         1 <0>         0.0801
     31 H14         5.3152   -3.0896    1.0843 H         1 <0>         0.0827
     32 H15         4.2951   -5.3768   -1.6848 H         1 <0>         0.1027
     33 H16         3.2798   -6.4131   -0.6480 H         1 <0>         0.0939
     34 H17         1.7251   -2.4659   -1.1569 H         1 <0>         0.0917
     35 H18         3.2522   -2.7552   -2.0311 H         1 <0>         0.1083
@<TRIPOS>BOND
     1    1    6 ar
     2    1    2 ar
     3    1   18 1
     4    2    3 ar
     5    2   19 1
     6    3    4 ar
     7    3   20 1
     8    4    5 ar
     9    4    7 1
    10    5    6 ar
    11    5   21 1
    12    6   22 1
    13    7    8 1
    14    8   13 1
    15    8   17 1
    16    8    9 1
    17    9   10 1
    18    9   23 1
    19    9   24 1
    20   10   11 1
    21   10   25 1
    22   10   26 1
    23   11   12 1
    24   11   27 1
    25   11   28 1
    26   12   13 1
    27   12   14 1
    28   12   29 1
    29   13   30 1
    30   13   31 1
    31   14   15 1
    32   14   32 1
    33   14   33 1
    34   15   16 2
    35   15   17 1
    36   17   34 1
    37   17   35 1
@<TRIPOS>MOLECULE
CHEMBL295091__1
   35    37     0     0     0
SMALL
USER_CHARGES

@<TRIPOS>ATOM
      1 C1         -0.0223    1.3601   -0.2425 C.ar      1 <0>        -0.0927
      2 C2          0.5736    1.1234    0.9829 C.ar      1 <0>        -0.1278
      3 C3          1.7812    0.4571    1.0481 C.ar      1 <0>        -0.0725
      4 C4          2.3977    0.0236   -0.1196 C.ar      1 <0>        -0.1183
      5 C5          1.7957    0.2628   -1.3492 C.ar      1 <0>        -0.0708
      6 C6          0.5882    0.9303   -1.4066 C.ar      1 <0>        -0.1282
      7 S1          3.9390   -0.8266   -0.0415 S.3       1 <0>        -0.1395
      8 C7          3.4700   -2.5726    0.1075 C.3       1 <0>        -0.0248
      9 C8          2.6736   -2.9897   -1.1285 C.3       1 <0>        -0.1104
     10 C9          2.3026   -4.4703   -1.0228 C.3       1 <0>        -0.1550
     11 C10         3.5810   -5.3075   -0.9438 C.3       1 <0>        -0.1190
     12 C11         4.3817   -4.9021    0.2933 C.3       1 <0>        -0.0740
     13 C12         4.7315   -3.4267    0.2276 C.3       1 <0>        -0.0949
     14 C13         3.5543   -5.1726    1.5533 C.3       1 <0>        -0.1701
     15 C14         2.3627   -4.2408    1.5568 C.2       1 <0>         0.3819
     16 O1          1.2432   -4.6664    1.7117 O.2       1 <0>        -0.4612
     17 C15         2.6002   -2.7592    1.3541 C.3       1 <0>        -0.1652
     18 H1         -0.9689    1.8779   -0.2901 H         1 <0>         0.1274
     19 H2          0.0940    1.4605    1.8900 H         1 <0>         0.1287
     20 H3          2.2463    0.2732    2.0053 H         1 <0>         0.1303
     21 H4          2.2719   -0.0725   -2.2587 H         1 <0>         0.1308
     22 H5          0.1200    1.1169   -2.3618 H         1 <0>         0.1286
     23 H6          1.7648   -2.3914   -1.1939 H         1 <0>         0.0669
     24 H7          3.2783   -2.8297   -2.0212 H         1 <0>         0.0797
     25 H8          1.7054   -4.6326   -0.1255 H         1 <0>         0.0852
     26 H9          1.7283   -4.7652   -1.9011 H         1 <0>         0.0720
     27 H10         3.3198   -6.3637   -0.8774 H         1 <0>         0.0695
     28 H11         4.1820   -5.1377   -1.8371 H         1 <0>         0.0716
     29 H12         5.2976   -5.4913    0.3392 H         1 <0>         0.0923
     30 H13         5.3698   -3.2512   -0.6383 H         1 <0>         0.0827
     31 H14         5.2711   -3.1479    1.1328 H         1 <0>         0.0801
     32 H15         3.2101   -6.2068    1.5501 H         1 <0>         0.0939
     33 H16         4.1643   -4.9899    2.4379 H         1 <0>         0.1027
     34 H17         3.1171   -2.3559    2.2248 H         1 <0>         0.1083
     35 H18         1.6498   -2.2431    1.2178 H         1 <0>         0.0917
@<TRIPOS>BOND
     1    1    6 ar
     2    1    2 ar
     3    1   18 1
     4    2    3 ar
     5    2   19 1
     6    3    4 ar
     7    3   20 1
     8    4    5 ar
     9    4    7 1
    10    5    6 ar
    11    5   21 1
    12    6   22 1
    13    7    8 1
    14    8   13 1
    15    8   17 1
    16    8    9 1
    17    9   10 1
    18    9   23 1
    19    9   24 1
    20   10   11 1
    21   10   25 1
    22   10   26 1
    23   11   12 1
    24   11   27 1
    25   11   28 1
    26   12   13 1
    27   12   14 1
    28   12   29 1
    29   13   30 1
    30   13   31 1
    31   14   15 1
    32   14   32 1
    33   14   33 1
    34   15   16 2
    35   15   17 1
    36   17   34 1
    37   17   35 1
@<TRIPOS>MOLECULE
CHEMBL150100
   72    74     0     0     0
SMALL
USER_CHARGES

@<TRIPOS>ATOM
      1 C1          1.5547    2.3186    0.9243 C.3       1 <0>         0.0269
      2 O1          1.0415    1.0997    0.3831 O.3       1 <0>        -0.3185
      3 C2          1.6269    0.6337   -0.7513 C.ar      1 <0>         0.1229
      4 C3          2.6775    1.3321   -1.3285 C.ar      1 <0>        -0.2060
      5 C4          3.2712    0.8561   -2.4814 C.ar      1 <0>        -0.0764
      6 C5          2.8190   -0.3153   -3.0604 C.ar      1 <0>        -0.1210
      7 C6          1.7718   -1.0130   -2.4874 C.ar      1 <0>        -0.0767
      8 C7          1.1788   -0.5444   -1.3310 C.ar      1 <0>        -0.1497
      9 C8          3.4682   -0.8320   -4.3184 C.3       1 <0>        -0.0733
     10 C9          4.6260   -1.7618   -3.9499 C.3       1 <0>        -0.1122
     11 C10         5.2851   -2.2864   -5.2271 C.3       1 <0>        -0.1173
     12 C11         6.4430   -3.2162   -4.8586 C.3       1 <0>         0.0700
     13 O2          7.0586   -3.7062   -6.0515 O.3       1 <0>        -0.3546
     14 C12         8.0990   -4.5410   -5.9016 C.2       1 <0>         0.4643
     15 O3          8.4746   -4.8456   -4.7944 O.2       1 <0>        -0.4660
     16 C13         8.7986   -5.0984   -7.1145 C.3       1 <0>         0.1565
     17 C14         8.6541   -6.6233   -7.1351 C.3       1 <0>        -0.1266
     18 C15         9.4815   -7.1945   -8.2889 C.3       1 <0>        -0.1174
     19 C16        10.9582   -6.8521   -8.0784 C.3       1 <0>        -0.1391
     20 C17        11.1288   -5.3297   -8.0684 C.3       1 <0>         0.1059
     21 N1         10.2271   -4.7594   -7.0582 N.am      1 <0>        -0.5921
     22 C18        10.7014   -3.9409   -6.0982 C.2       1 <0>         0.4895
     23 O4          9.9631   -3.5430   -5.2208 O.2       1 <0>        -0.4770
     24 C19        12.1341   -3.5239   -6.1141 C.2       1 <0>         0.4030
     25 O5         12.9784   -4.2328   -5.6052 O.2       1 <0>        -0.4045
     26 C20        12.5235   -2.2544   -6.7460 C.ar      1 <0>        -0.0969
     27 C21        11.5682   -1.4851   -7.4233 C.ar      1 <0>        -0.1777
     28 C22        11.9373   -0.2940   -8.0153 C.ar      1 <0>         0.1415
     29 C23        13.2590    0.1438   -7.9400 C.ar      1 <0>         0.0720
     30 C24        14.2125   -0.6194   -7.2672 C.ar      1 <0>         0.1395
     31 C25        13.8493   -1.8085   -6.6674 C.ar      1 <0>        -0.1651
     32 O6         15.5005   -0.1887   -7.1966 O.3       1 <0>        -0.2972
     33 C26        16.4248   -1.0201   -6.4919 C.3       1 <0>         0.0202
     34 O7         13.6185    1.3160   -8.5235 O.3       1 <0>        -0.3112
     35 C27        13.5235    2.4955   -7.7224 C.3       1 <0>         0.0354
     36 O8         11.0109    0.4531   -8.6732 O.3       1 <0>        -0.2966
     37 C28         9.6759   -0.0554   -8.7119 C.3       1 <0>         0.0216
     38 H1          2.6091    2.1918    1.1697 H         1 <0>         0.0556
     39 H2          1.4460    3.1165    0.1897 H         1 <0>         0.0557
     40 H3          1.0003    2.5774    1.8264 H         1 <0>         0.1010
     41 H4          3.0307    2.2475   -0.8770 H         1 <0>         0.1276
     42 H5          4.0891    1.3994   -2.9311 H         1 <0>         0.1240
     43 H6          1.4201   -1.9275   -2.9417 H         1 <0>         0.1291
     44 H7          0.3638   -1.0921   -0.8814 H         1 <0>         0.1306
     45 H8          2.7337   -1.3820   -4.9067 H         1 <0>         0.0740
     46 H9          3.8473    0.0065   -4.9025 H         1 <0>         0.0727
     47 H10         5.3605   -1.2118   -3.3616 H         1 <0>         0.0672
     48 H11         4.2469   -2.6003   -3.3658 H         1 <0>         0.0681
     49 H12         4.5507   -2.8364   -5.8154 H         1 <0>         0.0749
     50 H13         5.6643   -1.4479   -5.8112 H         1 <0>         0.0736
     51 H14         7.1775   -2.6662   -4.2702 H         1 <0>         0.0698
     52 H15         6.0639   -4.0547   -4.2745 H         1 <0>         0.0656
     53 H16         8.3579   -4.6752   -8.0171 H         1 <0>         0.1124
     54 H17         9.0122   -7.0355   -6.1917 H         1 <0>         0.0832
     55 H18         7.6057   -6.8876   -7.2736 H         1 <0>         0.0883
     56 H19         9.3609   -8.2774   -8.3210 H         1 <0>         0.0797
     57 H20         9.1392   -6.7632   -9.2296 H         1 <0>         0.0731
     58 H21        11.2945   -7.2621   -7.1261 H         1 <0>         0.0745
     59 H22        11.5497   -7.2791   -8.8882 H         1 <0>         0.0873
     60 H23        12.1602   -5.0792   -7.8206 H         1 <0>         0.0864
     61 H24        10.8787   -4.9276   -9.0502 H         1 <0>         0.0865
     62 H25        10.5444   -1.8238   -7.4823 H         1 <0>         0.1407
     63 H26        14.5873   -2.3966   -6.1421 H         1 <0>         0.1512
     64 H27        16.0968   -1.1335   -5.4587 H         1 <0>         0.0602
     65 H28        16.4691   -1.9994   -6.9686 H         1 <0>         0.0616
     66 H29        17.4135   -0.5616   -6.5111 H         1 <0>         0.1083
     67 H30        12.4915    2.6334   -7.3997 H         1 <0>         0.0479
     68 H31        14.1670    2.3940   -6.8485 H         1 <0>         0.0480
     69 H32        13.8395    3.3589   -8.3079 H         1 <0>         0.0978
     70 H33         9.6716   -1.0277   -9.2045 H         1 <0>         0.0593
     71 H34         9.2980   -0.1616   -7.6950 H         1 <0>         0.0591
     72 H35         9.0399    0.6353   -9.2655 H         1 <0>         0.1087
@<TRIPOS>BOND
     1    1    2 1
     2    1   38 1
     3    1   39 1
     4    1   40 1
     5    2    3 1
     6    3    8 ar
     7    3    4 ar
     8    4    5 ar
     9    4   41 1
    10    5    6 ar
    11    5   42 1
    12    6    7 ar
    13    6    9 1
    14    7    8 ar
    15    7   43 1
    16    8   44 1
    17    9   10 1
    18    9   45 1
    19    9   46 1
    20   10   11 1
    21   10   47 1
    22   10   48 1
    23   11   12 1
    24   11   49 1
    25   11   50 1
    26   12   13 1
    27   12   51 1
    28   12   52 1
    29   13   14 1
    30   14   15 2
    31   14   16 1
    32   16   21 1
    33   16   17 1
    34   16   53 1
    35   17   18 1
    36   17   54 1
    37   17   55 1
    38   18   19 1
    39   18   56 1
    40   18   57 1
    41   19   20 1
    42   19   58 1
    43   19   59 1
    44   20   21 1
    45   20   60 1
    46   20   61 1
    47   21   22 am
    48   22   23 2
    49   22   24 1
    50   24   25 2
    51   24   26 1
    52   26   31 ar
    53   26   27 ar
    54   27   28 ar
    55   27   62 1
    56   28   29 ar
    57   28   36 1
    58   29   30 ar
    59   29   34 1
    60   30   31 ar
    61   30   32 1
    62   31   63 1
    63   32   33 1
    64   33   64 1
    65   33   65 1
    66   33   66 1
    67   34   35 1
    68   35   67 1
    69   35   68 1
    70   35   69 1
    71   36   37 1
    72   37   70 1
    73   37   71 1
    74   37   72 1
@<TRIPOS>MOLECULE
CHEMBL150100__1
   72    74     0     0     0
SMALL
USER_CHARGES

@<TRIPOS>ATOM
      1 C1         -0.8758   -1.3504    0.8623 C.3       1 <0>         0.0269
      2 O1         -0.1641   -2.5682    1.0916 O.3       1 <0>        -0.3185
      3 C2          0.4867   -3.1118    0.0297 C.ar      1 <0>         0.1228
      4 C3          0.4461   -2.4830   -1.2063 C.ar      1 <0>        -0.2062
      5 C4          1.1089   -3.0374   -2.2841 C.ar      1 <0>        -0.0765
      6 C5          1.8120   -4.2182   -2.1319 C.ar      1 <0>        -0.1210
      7 C6          1.8536   -4.8471   -0.9013 C.ar      1 <0>        -0.0766
      8 C7          1.1976   -4.2935    0.1811 C.ar      1 <0>        -0.1495
      9 C8          2.5338   -4.8210   -3.3095 C.3       1 <0>        -0.0734
     10 C9          3.9622   -4.2758   -3.3658 C.3       1 <0>        -0.1122
     11 C10         4.6950   -4.8878   -4.5614 C.3       1 <0>        -0.1173
     12 C11         6.1234   -4.3426   -4.6176 C.3       1 <0>         0.0700
     13 O2          6.8078   -4.9143   -5.7343 O.3       1 <0>        -0.3531
     14 C12         8.0815   -4.5368   -5.9267 C.2       1 <0>         0.4636
     15 O3          8.5982   -3.7473   -5.1720 O.2       1 <0>        -0.4673
     16 C13         8.8670   -5.0979   -7.0840 C.3       1 <0>         0.1573
     17 C14         9.1189   -3.9947   -8.1165 C.3       1 <0>        -0.1264
     18 C15        10.0331   -4.5330   -9.2196 C.3       1 <0>        -0.1170
     19 C16        11.3773   -4.9445   -8.6147 C.3       1 <0>        -0.1405
     20 C17        11.1510   -6.0585   -7.5878 C.3       1 <0>         0.1082
     21 N1         10.1614   -5.6002   -6.6033 N.am      1 <0>        -0.5932
     22 C18        10.4357   -5.6398   -5.2843 C.2       1 <0>         0.4904
     23 O4          9.5789   -5.3437   -4.4771 O.2       1 <0>        -0.4764
     24 C19        11.7927   -6.0477   -4.8163 C.2       1 <0>         0.4031
     25 O5         12.6820   -5.2244   -4.7414 O.2       1 <0>        -0.4029
     26 C20        12.0530   -7.4468   -4.4459 C.ar      1 <0>        -0.0983
     27 C21        11.0043   -8.3757   -4.4299 C.ar      1 <0>        -0.1777
     28 C22        11.2523   -9.6883   -4.0817 C.ar      1 <0>         0.1413
     29 C23        12.5446  -10.0900   -3.7460 C.ar      1 <0>         0.0718
     30 C24        13.5907   -9.1682   -3.7603 C.ar      1 <0>         0.1395
     31 C25        13.3513   -7.8554   -4.1136 C.ar      1 <0>        -0.1663
     32 O6         14.8495   -9.5643   -3.4318 O.3       1 <0>        -0.2973
     33 C26        15.8732   -8.5679   -3.4674 C.3       1 <0>         0.0204
     34 O7         12.7849  -11.3819   -3.4039 O.3       1 <0>        -0.3111
     35 C27        13.1296  -12.2796   -4.4609 C.3       1 <0>         0.0358
     36 O8         10.2349  -10.5905   -4.0655 O.3       1 <0>        -0.2967
     37 C28         8.9364  -10.1104   -4.4198 C.3       1 <0>         0.0215
     38 H1         -0.1816   -0.5829    0.5200 H         1 <0>         0.0556
     39 H2         -1.6402   -1.5138    0.1027 H         1 <0>         0.0556
     40 H3         -1.3483   -1.0256    1.7893 H         1 <0>         0.1010
     41 H4         -0.1035   -1.5611   -1.3258 H         1 <0>         0.1276
     42 H5          1.0776   -2.5483   -3.2465 H         1 <0>         0.1242
     43 H6          2.4032   -5.7695   -0.7851 H         1 <0>         0.1291
     44 H7          1.2341   -4.7828    1.1432 H         1 <0>         0.1306
     45 H8          2.5627   -5.9053   -3.2017 H         1 <0>         0.0738
     46 H9          2.0092   -4.5612   -4.2290 H         1 <0>         0.0730
     47 H10         3.9333   -3.1916   -3.4736 H         1 <0>         0.0671
     48 H11         4.4868   -4.5357   -2.4463 H         1 <0>         0.0683
     49 H12         4.7239   -5.9721   -4.4536 H         1 <0>         0.0746
     50 H13         4.1704   -4.6280   -5.4808 H         1 <0>         0.0744
     51 H14         6.0945   -3.2584   -4.7254 H         1 <0>         0.0652
     52 H15         6.6480   -4.6025   -3.6982 H         1 <0>         0.0704
     53 H16         8.3075   -5.9119   -7.5449 H         1 <0>         0.1129
     54 H17         8.1703   -3.6800   -8.5515 H         1 <0>         0.0894
     55 H18         9.5969   -3.1440   -7.6308 H         1 <0>         0.0818
     56 H19         9.5655   -5.3988   -9.6884 H         1 <0>         0.0732
     57 H20        10.1941   -3.7575   -9.9684 H         1 <0>         0.0797
     58 H21        12.0361   -5.3060   -9.4043 H         1 <0>         0.0868
     59 H22        11.8341   -4.0849   -8.1243 H         1 <0>         0.0747
     60 H23        10.7788   -6.9503   -8.0921 H         1 <0>         0.0869
     61 H24        12.0899   -6.2866   -7.0832 H         1 <0>         0.0846
     62 H25        10.0030   -8.0652   -4.6895 H         1 <0>         0.1419
     63 H26        14.1629   -7.1431   -4.1295 H         1 <0>         0.1510
     64 H27        15.9483   -8.1600   -4.4755 H         1 <0>         0.0600
     65 H28        15.6263   -7.7681   -2.7693 H         1 <0>         0.0616
     66 H29        16.8260   -9.0157   -3.1848 H         1 <0>         0.1082
     67 H30        12.3173  -12.3151   -5.1868 H         1 <0>         0.0477
     68 H31        14.0394  -11.9322   -4.9505 H         1 <0>         0.0478
     69 H32        13.2951  -13.2763   -4.0518 H         1 <0>         0.0973
     70 H33         8.6395   -9.3217   -3.7285 H         1 <0>         0.0606
     71 H34         8.9601   -9.7139   -5.4349 H         1 <0>         0.0579
     72 H35         8.2192  -10.9295   -4.3663 H         1 <0>         0.1087
@<TRIPOS>BOND
     1    1    2 1
     2    1   38 1
     3    1   39 1
     4    1   40 1
     5    2    3 1
     6    3    8 ar
     7    3    4 ar
     8    4    5 ar
     9    4   41 1
    10    5    6 ar
    11    5   42 1
    12    6    7 ar
    13    6    9 1
    14    7    8 ar
    15    7   43 1
    16    8   44 1
    17    9   10 1
    18    9   45 1
    19    9   46 1
    20   10   11 1
    21   10   47 1
    22   10   48 1
    23   11   12 1
    24   11   49 1
    25   11   50 1
    26   12   13 1
    27   12   51 1
    28   12   52 1
    29   13   14 1
    30   14   15 2
    31   14   16 1
    32   16   21 1
    33   16   17 1
    34   16   53 1
    35   17   18 1
    36   17   54 1
    37   17   55 1
    38   18   19 1
    39   18   56 1
    40   18   57 1
    41   19   20 1
    42   19   58 1
    43   19   59 1
    44   20   21 1
    45   20   60 1
    46   20   61 1
    47   21   22 am
    48   22   23 2
    49   22   24 1
    50   24   25 2
    51   24   26 1
    52   26   31 ar
    53   26   27 ar
    54   27   28 ar
    55   27   62 1
    56   28   29 ar
    57   28   36 1
    58   29   30 ar
    59   29   34 1
    60   30   31 ar
    61   30   32 1
    62   31   63 1
    63   32   33 1
    64   33   64 1
    65   33   65 1
    66   33   66 1
    67   34   35 1
    68   35   67 1
    69   35   68 1
    70   35   69 1
    71   36   37 1
    72   37   70 1
    73   37   71 1
    74   37   72 1
@<TRIPOS>MOLECULE
CHEMBL381691
   72    76     0     0     0
SMALL
USER_CHARGES

@<TRIPOS>ATOM
      1 C1         -0.9177    1.2932    1.9071 C.3       1 <0>         0.0250
      2 O1         -0.9132   -0.1303    2.0324 O.3       1 <0>        -0.3091
      3 C2          0.2878   -0.7559    1.9181 C.ar      1 <0>         0.1808
      4 C3          0.3630   -2.1362    2.0238 C.ar      1 <0>        -0.1667
      5 C4          1.5899   -2.7752    1.9066 C.ar      1 <0>         0.2013
      6 C5          2.7407   -2.0313    1.6836 C.ar      1 <0>        -0.1809
      7 C6          2.6639   -0.6511    1.5782 C.ar      1 <0>         0.1796
      8 C7          1.4371   -0.0139    1.6901 C.ar      1 <0>        -0.2896
      9 O2          3.7903    0.0773    1.3599 O.3       1 <0>        -0.3095
     10 C8          3.6375    1.4947    1.2620 C.3       1 <0>         0.0250
     11 N1          1.6667   -4.1687    2.0136 N.am      1 <0>        -0.4961
     12 C9          2.3064   -4.7399    3.1101 C.2       1 <0>         0.0468
     13 C10         2.3951   -6.0541    3.2496 C.2       1 <0>         0.0419
     14 C11         3.1153   -6.5899    4.4702 C.3       1 <0>         0.1971
     15 C12         4.5989   -6.7658    4.1198 C.3       1 <0>        -0.1285
     16 C13         4.7266   -7.7230    2.9330 C.3       1 <0>        -0.1293
     17 C14         4.1164   -9.0800    3.2903 C.3       1 <0>        -0.1281
     18 C15         2.6341   -8.8895    3.6411 C.3       1 <0>         0.1284
     19 N2          2.5610   -7.9277    4.7610 N.am      1 <0>        -0.6004
     20 C16         2.0291   -8.2474    5.9573 C.2       1 <0>         0.5101
     21 O3          1.9102   -7.3972    6.8154 O.2       1 <0>        -0.4901
     22 C17         1.5862   -9.6468    6.2270 C.2       1 <0>         0.3991
     23 O4          2.3886  -10.4747    6.6077 O.2       1 <0>        -0.3991
     24 C18         0.1780  -10.0229    6.0318 C.ar      1 <0>        -0.1033
     25 C19        -0.7694   -9.0469    5.6959 C.ar      1 <0>        -0.1776
     26 C20        -2.0903   -9.4037    5.5134 C.ar      1 <0>         0.1416
     27 C21        -2.4822  -10.7334    5.6630 C.ar      1 <0>         0.0751
     28 C22        -1.5422  -11.7074    5.9977 C.ar      1 <0>         0.1397
     29 C23        -0.2183  -11.3590    6.1756 C.ar      1 <0>        -0.1635
     30 O5         -1.9289  -13.0030    6.1430 O.3       1 <0>        -0.2967
     31 C24        -0.9139  -13.9484    6.4866 C.3       1 <0>         0.0201
     32 O6         -3.7825  -11.0807    5.4827 O.3       1 <0>        -0.3112
     33 C25        -4.1775  -11.4524    4.1606 C.3       1 <0>         0.0357
     34 O7         -3.0107   -8.4570    5.1878 O.3       1 <0>        -0.2956
     35 C26        -2.5401   -7.1146    5.0510 C.3       1 <0>         0.0230
     36 C27         1.9335   -8.2666    2.4617 C.2       1 <0>         0.5155
     37 O8          1.4290   -8.9871    1.6263 O.2       1 <0>        -0.5004
     38 N3          1.8520   -6.9258    2.3103 N.am      1 <0>        -0.5374
     39 C28         1.1654   -6.4311    1.1145 C.3       1 <0>         0.1042
     40 C29         1.1185   -4.9372    1.0617 C.2       1 <0>         0.5145
     41 O9          0.5686   -4.4018    0.1221 O.2       1 <0>        -0.4914
     42 H1         -0.5340    1.5728    0.9259 H         1 <0>         0.0577
     43 H2         -1.9365    1.6645    2.0181 H         1 <0>         0.1056
     44 H3         -0.2860    1.7281    2.6816 H         1 <0>         0.0578
     45 H4         -0.5326   -2.7142    2.1976 H         1 <0>         0.1348
     46 H5          3.6955   -2.5277    1.5927 H         1 <0>         0.1392
     47 H6          1.3773    1.0610    1.6038 H         1 <0>         0.1405
     48 H7          2.9702    1.7318    0.4333 H         1 <0>         0.0576
     49 H8          3.2151    1.8796    2.1901 H         1 <0>         0.0580
     50 H9          4.6106    1.9538    1.0877 H         1 <0>         0.1055
     51 H10         2.7398   -4.0979    3.8627 H         1 <0>         0.1736
     52 H11         2.9839   -5.9224    5.3218 H         1 <0>         0.1395
     53 H12         5.0276   -5.7991    3.8556 H         1 <0>         0.0918
     54 H13         5.1294   -7.1776    4.9784 H         1 <0>         0.0862
     55 H14         4.2027   -7.3055    2.0732 H         1 <0>         0.0679
     56 H15         5.7799   -7.8537    2.6850 H         1 <0>         0.0839
     57 H16         4.2054   -9.7548    2.4389 H         1 <0>         0.0929
     58 H17         4.6421   -9.5016    4.1469 H         1 <0>         0.0942
     59 H18         2.1771   -9.8398    3.9170 H         1 <0>         0.1316
     60 H19        -0.4666   -8.0167    5.5802 H         1 <0>         0.1411
     61 H20         0.5102  -12.1147    6.4297 H         1 <0>         0.1523
     62 H21        -0.1476  -13.9566    5.7115 H         1 <0>         0.0604
     63 H22        -0.4641  -13.6684    7.4392 H         1 <0>         0.0618
     64 H23        -1.3557  -14.9412    6.5713 H         1 <0>         0.1082
     65 H24        -3.9999  -10.6192    3.4807 H         1 <0>         0.0480
     66 H25        -3.5962  -12.3158    3.8370 H         1 <0>         0.0486
     67 H26        -5.2376  -11.7057    4.1558 H         1 <0>         0.0979
     68 H27        -2.1021   -6.7854    5.9933 H         1 <0>         0.0619
     69 H28        -1.7859   -7.0723    4.2653 H         1 <0>         0.0541
     70 H29        -3.3735   -6.4622    4.7902 H         1 <0>         0.1088
     71 H30         1.6839   -6.8025    0.2306 H         1 <0>         0.1204
     72 H31         0.1448   -6.8138    1.1096 H         1 <0>         0.1185
@<TRIPOS>BOND
     1    1    2 1
     2    1   42 1
     3    1   43 1
     4    1   44 1
     5    2    3 1
     6    3    8 ar
     7    3    4 ar
     8    4    5 ar
     9    4   45 1
    10    5    6 ar
    11    5   11 1
    12    6    7 ar
    13    6   46 1
    14    7    8 ar
    15    7    9 1
    16    8   47 1
    17    9   10 1
    18   10   48 1
    19   10   49 1
    20   10   50 1
    21   11   40 am
    22   11   12 1
    23   12   13 2
    24   12   51 1
    25   13   38 1
    26   13   14 1
    27   14   19 1
    28   14   15 1
    29   14   52 1
    30   15   16 1
    31   15   53 1
    32   15   54 1
    33   16   17 1
    34   16   55 1
    35   16   56 1
    36   17   18 1
    37   17   57 1
    38   17   58 1
    39   18   19 1
    40   18   36 1
    41   18   59 1
    42   19   20 am
    43   20   21 2
    44   20   22 1
    45   22   23 2
    46   22   24 1
    47   24   29 ar
    48   24   25 ar
    49   25   26 ar
    50   25   60 1
    51   26   27 ar
    52   26   34 1
    53   27   28 ar
    54   27   32 1
    55   28   29 ar
    56   28   30 1
    57   29   61 1
    58   30   31 1
    59   31   62 1
    60   31   63 1
    61   31   64 1
    62   32   33 1
    63   33   65 1
    64   33   66 1
    65   33   67 1
    66   34   35 1
    67   35   68 1
    68   35   69 1
    69   35   70 1
    70   36   37 2
    71   36   38 am
    72   38   39 1
    73   39   40 1
    74   39   71 1
    75   39   72 1
    76   40   41 2
@<TRIPOS>MOLECULE
CHEMBL381691__1
   72    76     0     0     0
SMALL
USER_CHARGES

@<TRIPOS>ATOM
      1 C1          0.3324    1.7569    3.9001 C.3       1 <0>         0.0250
      2 O1          0.2973    0.3303    3.9745 O.3       1 <0>        -0.3095
      3 C2          0.9918   -0.3542    3.0280 C.ar      1 <0>         0.1799
      4 C3          0.9954   -1.7406    3.0382 C.ar      1 <0>        -0.1820
      5 C4          1.7046   -2.4397    2.0710 C.ar      1 <0>         0.2018
      6 C5          2.4097   -1.7499    1.0941 C.ar      1 <0>        -0.1668
      7 C6          2.4052   -0.3635    1.0851 C.ar      1 <0>         0.1811
      8 C7          1.6921    0.3342    2.0486 C.ar      1 <0>        -0.2902
      9 O2          3.0953    0.3119    0.1289 O.3       1 <0>        -0.3090
     10 C8          3.0467    1.7392    0.1800 C.3       1 <0>         0.0250
     11 N1          1.7092   -3.8394    2.0809 N.am      1 <0>        -0.4959
     12 C9          2.3241   -4.5176    3.1296 C.2       1 <0>         0.0458
     13 C10         2.3531   -5.8411    3.1726 C.2       1 <0>         0.0416
     14 C11         3.0374   -6.4968    4.3547 C.3       1 <0>         0.1970
     15 C12         1.9931   -6.7210    5.4565 C.3       1 <0>        -0.1280
     16 C13         0.8641   -7.5973    4.9102 C.3       1 <0>        -0.1295
     17 C14         1.4261   -8.9441    4.4501 C.3       1 <0>        -0.1270
     18 C15         2.4706   -8.7054    3.3508 C.3       1 <0>         0.1282
     19 N2          3.5147   -7.8225    3.9119 N.am      1 <0>        -0.6012
     20 C16         4.8049   -8.1989    4.0125 C.2       1 <0>         0.5104
     21 O3          5.6083   -7.4722    4.5599 O.2       1 <0>        -0.4895
     22 C17         5.2458   -9.5093    3.4507 C.2       1 <0>         0.3986
     23 O4          5.1385  -10.5209    4.1134 O.2       1 <0>        -0.4004
     24 C18         5.8103   -9.5752    2.0943 C.ar      1 <0>        -0.1009
     25 C19         5.8394   -8.4289    1.2894 C.ar      1 <0>        -0.1777
     26 C20         6.3700   -8.4945    0.0167 C.ar      1 <0>         0.1416
     27 C21         6.8766   -9.6998   -0.4680 C.ar      1 <0>         0.0751
     28 C22         6.8489  -10.8428    0.3302 C.ar      1 <0>         0.1397
     29 C23         6.3255  -10.7832    1.6062 C.ar      1 <0>        -0.1625
     30 O5          7.3437  -12.0163   -0.1467 O.3       1 <0>        -0.2967
     31 C24         7.2835  -13.1475    0.7243 C.3       1 <0>         0.0200
     32 O6          7.3978   -9.7607   -1.7204 O.3       1 <0>        -0.3109
     33 C25         8.7951   -9.4935   -1.8553 C.3       1 <0>         0.0356
     34 O7          6.3982   -7.3825   -0.7655 O.3       1 <0>        -0.2950
     35 C26         5.8620   -6.1819   -0.2059 C.3       1 <0>         0.0239
     36 C27         1.8157   -7.9668    2.2127 C.2       1 <0>         0.5140
     37 O8          1.3127   -8.6007    1.3089 O.2       1 <0>        -0.4983
     38 N3          1.7738   -6.6164    2.1723 N.am      1 <0>        -0.5381
     39 C28         1.0929   -6.0051    1.0282 C.3       1 <0>         0.1034
     40 C29         1.1164   -4.5106    1.0833 C.2       1 <0>         0.5143
     41 O9          0.5841   -3.8837    0.1915 O.2       1 <0>        -0.4905
     42 H1         -0.0782    2.0811    2.9438 H         1 <0>         0.0576
     43 H2         -0.2610    2.1778    4.7118 H         1 <0>         0.1055
     44 H3          1.3633    2.1000    3.9879 H         1 <0>         0.0579
     45 H4          0.4470   -2.2766    3.7987 H         1 <0>         0.1392
     46 H5          2.9620   -2.2931    0.3415 H         1 <0>         0.1349
     47 H6          1.6855    1.4141    2.0387 H         1 <0>         0.1404
     48 H7          2.0129    2.0712    0.0846 H         1 <0>         0.0578
     49 H8          3.4523    2.0827    1.1317 H         1 <0>         0.0578
     50 H9          3.6379    2.1524   -0.6372 H         1 <0>         0.1055
     51 H10         2.7877   -3.9526    3.9247 H         1 <0>         0.1736
     52 H11         3.8665   -5.8852    4.7107 H         1 <0>         0.1393
     53 H12         2.4613   -7.2182    6.3060 H         1 <0>         0.0863
     54 H13         1.5873   -5.7606    5.7743 H         1 <0>         0.0912
     55 H14         0.1232   -7.7624    5.6925 H         1 <0>         0.0838
     56 H15         0.3918   -7.0947    4.0662 H         1 <0>         0.0679
     57 H16         1.8947   -9.4507    5.2939 H         1 <0>         0.0939
     58 H17         0.6180   -9.5608    4.0569 H         1 <0>         0.0932
     59 H18         2.9012   -9.6489    3.0155 H         1 <0>         0.1326
     60 H19         5.4468   -7.4951    1.6640 H         1 <0>         0.1391
     61 H20         6.3091  -11.6676    2.2257 H         1 <0>         0.1524
     62 H21         7.8501  -12.9380    1.6317 H         1 <0>         0.0604
     63 H22         6.2446  -13.3515    0.9837 H         1 <0>         0.0619
     64 H23         7.7099  -14.0159    0.2222 H         1 <0>         0.1083
     65 H24         9.0085   -8.4861   -1.4979 H         1 <0>         0.0480
     66 H25         9.3615  -10.2154   -1.2669 H         1 <0>         0.0484
     67 H26         9.0810   -9.5752   -2.9039 H         1 <0>         0.0979
     68 H27         4.8129   -6.3357    0.0467 H         1 <0>         0.0540
     69 H28         6.4181   -5.9208    0.6945 H         1 <0>         0.0603
     70 H29         5.9461   -5.3734   -0.9321 H         1 <0>         0.1087
     71 H30         1.5792   -6.3353    0.1102 H         1 <0>         0.1198
     72 H31         0.0553   -6.3385    1.0155 H         1 <0>         0.1200
@<TRIPOS>BOND
     1    1    2 1
     2    1   42 1
     3    1   43 1
     4    1   44 1
     5    2    3 1
     6    3    8 ar
     7    3    4 ar
     8    4    5 ar
     9    4   45 1
    10    5    6 ar
    11    5   11 1
    12    6    7 ar
    13    6   46 1
    14    7    8 ar
    15    7    9 1
    16    8   47 1
    17    9   10 1
    18   10   48 1
    19   10   49 1
    20   10   50 1
    21   11   40 am
    22   11   12 1
    23   12   13 2
    24   12   51 1
    25   13   38 1
    26   13   14 1
    27   14   19 1
    28   14   15 1
    29   14   52 1
    30   15   16 1
    31   15   53 1
    32   15   54 1
    33   16   17 1
    34   16   55 1
    35   16   56 1
    36   17   18 1
    37   17   57 1
    38   17   58 1
    39   18   19 1
    40   18   36 1
    41   18   59 1
    42   19   20 am
    43   20   21 2
    44   20   22 1
    45   22   23 2
    46   22   24 1
    47   24   29 ar
    48   24   25 ar
    49   25   26 ar
    50   25   60 1
    51   26   27 ar
    52   26   34 1
    53   27   28 ar
    54   27   32 1
    55   28   29 ar
    56   28   30 1
    57   29   61 1
    58   30   31 1
    59   31   62 1
    60   31   63 1
    61   31   64 1
    62   32   33 1
    63   33   65 1
    64   33   66 1
    65   33   67 1
    66   34   35 1
    67   35   68 1
    68   35   69 1
    69   35   70 1
    70   36   37 2
    71   36   38 am
    72   38   39 1
    73   39   40 1
    74   39   71 1
    75   39   72 1
    76   40   41 2
@<TRIPOS>MOLECULE
CHEMBL149707
   61    62     0     0     0
SMALL
USER_CHARGES

@<TRIPOS>ATOM
      1 C1         -0.1406    1.5234   -0.0551 C.3       1 <0>        -0.1378
      2 C2         -0.0837   -0.0055   -0.0450 C.3       1 <0>        -0.0914
      3 C3          0.6486   -0.4803    1.2117 C.3       1 <0>        -0.1452
      4 C4         -1.5062   -0.5688   -0.0498 C.3       1 <0>        -0.1442
      5 C5          0.6522   -0.4889   -1.2680 C.2       1 <0>         0.3753
      6 O1          1.0864    0.3074   -2.0656 O.2       1 <0>        -0.4040
      7 C6          0.8442   -1.9501   -1.4934 C.2       1 <0>         0.4746
      8 O2          0.5074   -2.7451   -0.6405 O.2       1 <0>        -0.4797
      9 N1          1.3918   -2.3881   -2.6444 N.am      1 <0>        -0.5768
     10 C7          1.9375   -1.4378   -3.6231 C.3       1 <0>         0.0472
     11 C8          1.2948   -1.7106   -4.9866 C.3       1 <0>        -0.1356
     12 C9          1.4992   -3.1813   -5.3573 C.3       1 <0>        -0.1202
     13 C10         0.8176   -4.0712   -4.3153 C.3       1 <0>        -0.1231
     14 C11         1.4598   -3.8254   -2.9416 C.3       1 <0>         0.1475
     15 C12         0.7095   -4.5957   -1.8858 C.2       1 <0>         0.4797
     16 O3         -0.4840   -4.4506   -1.7659 O.2       1 <0>        -0.4942
     17 O4          1.3671   -5.4430   -1.0787 O.3       1 <0>        -0.3513
     18 C13         0.5927   -6.1400   -0.1006 C.3       1 <0>         0.0726
     19 C14         1.5077   -7.0522    0.7189 C.3       1 <0>        -0.1187
     20 C15         0.6786   -7.7984    1.7661 C.3       1 <0>        -0.1122
     21 C16         1.5936   -8.7106    2.5856 C.3       1 <0>        -0.0850
     22 C17         2.1743   -9.7979    1.6792 C.3       1 <0>        -0.1171
     23 C18         3.0893  -10.7101    2.4986 C.3       1 <0>        -0.1207
     24 C19         2.2841  -11.3613    3.6249 C.3       1 <0>        -0.1209
     25 C20         1.7035  -10.2741    4.5313 C.3       1 <0>        -0.1204
     26 C21         0.7885   -9.3619    3.7118 C.3       1 <0>        -0.1151
     27 H1          0.8729    1.9247   -0.0516 H         1 <0>         0.0634
     28 H2         -0.6623    1.8617   -0.9504 H         1 <0>         0.0632
     29 H3         -0.6728    1.8730    0.8295 H         1 <0>         0.0706
     30 H4          0.1163   -0.1307    2.0963 H         1 <0>         0.0732
     31 H5          0.6891   -1.5695    1.2189 H         1 <0>         0.0808
     32 H6          1.6620   -0.0790    1.2152 H         1 <0>         0.0570
     33 H7         -2.0279   -0.2306   -0.9451 H         1 <0>         0.0572
     34 H8         -1.4657   -1.6580   -0.0426 H         1 <0>         0.0783
     35 H9         -2.0385   -0.2192    0.8348 H         1 <0>         0.0738
     36 H10         1.7100   -0.4190   -3.3092 H         1 <0>         0.1556
     37 H11         3.0173   -1.5675   -3.6955 H         1 <0>         0.0745
     38 H12         0.2280   -1.4930   -4.9361 H         1 <0>         0.0684
     39 H13         1.7605   -1.0771   -5.7416 H         1 <0>         0.0833
     40 H14         1.0643   -3.3724   -6.3383 H         1 <0>         0.0764
     41 H15         2.5658   -3.4044   -5.3834 H         1 <0>         0.0703
     42 H16        -0.2448   -3.8314   -4.2711 H         1 <0>         0.0826
     43 H17         0.9435   -5.1178   -4.5925 H         1 <0>         0.0846
     44 H18         2.5015   -4.1459   -2.9596 H         1 <0>         0.1079
     45 H19         0.1101   -5.4205    0.5608 H         1 <0>         0.0703
     46 H20        -0.1672   -6.7412   -0.5998 H         1 <0>         0.0628
     47 H21         1.9904   -7.7717    0.0574 H         1 <0>         0.0746
     48 H22         2.2676   -6.4509    1.2181 H         1 <0>         0.0726
     49 H23         0.1960   -7.0789    2.4275 H         1 <0>         0.0664
     50 H24        -0.0812   -8.3997    1.2669 H         1 <0>         0.0655
     51 H25         2.4055   -8.1219    3.0128 H         1 <0>         0.0712
     52 H26         1.3625  -10.3865    1.2519 H         1 <0>         0.0615
     53 H27         2.7479   -9.3339    0.8768 H         1 <0>         0.0640
     54 H28         3.5030  -11.4846    1.8529 H         1 <0>         0.0605
     55 H29         3.9011  -10.1214    2.9259 H         1 <0>         0.0608
     56 H30         1.4723  -11.9500    3.1977 H         1 <0>         0.0607
     57 H31         2.9360  -12.0112    4.2087 H         1 <0>         0.0599
     58 H32         1.1299  -10.7380    5.3337 H         1 <0>         0.0609
     59 H33         2.5153   -9.6854    4.9585 H         1 <0>         0.0610
     60 H34         0.3748   -8.5873    4.3576 H         1 <0>         0.0615
     61 H35        -0.0233   -9.9506    3.2846 H         1 <0>         0.0619
@<TRIPOS>BOND
     1    1    2 1
     2    1   27 1
     3    1   28 1
     4    1   29 1
     5    2    3 1
     6    2    4 1
     7    2    5 1
     8    3   30 1
     9    3   31 1
    10    3   32 1
    11    4   33 1
    12    4   34 1
    13    4   35 1
    14    5    6 2
    15    5    7 1
    16    7    8 2
    17    7    9 am
    18    9   14 1
    19    9   10 1
    20   10   11 1
    21   10   36 1
    22   10   37 1
    23   11   12 1
    24   11   38 1
    25   11   39 1
    26   12   13 1
    27   12   40 1
    28   12   41 1
    29   13   14 1
    30   13   42 1
    31   13   43 1
    32   14   15 1
    33   14   44 1
    34   15   16 2
    35   15   17 1
    36   17   18 1
    37   18   19 1
    38   18   45 1
    39   18   46 1
    40   19   20 1
    41   19   47 1
    42   19   48 1
    43   20   21 1
    44   20   49 1
    45   20   50 1
    46   21   26 1
    47   21   22 1
    48   21   51 1
    49   22   23 1
    50   22   52 1
    51   22   53 1
    52   23   24 1
    53   23   54 1
    54   23   55 1
    55   24   25 1
    56   24   56 1
    57   24   57 1
    58   25   26 1
    59   25   58 1
    60   25   59 1
    61   26   60 1
    62   26   61 1
@<TRIPOS>MOLECULE
CHEMBL149707__1
   61    62     0     0     0
SMALL
USER_CHARGES

@<TRIPOS>ATOM
      1 C1         -1.2431    1.3402   -0.5811 C.3       1 <0>        -0.1374
      2 C2         -0.8457   -0.1265   -0.4028 C.3       1 <0>        -0.0919
      3 C3          0.1030   -0.2564    0.7905 C.3       1 <0>        -0.1440
      4 C4         -2.0989   -0.9676   -0.1519 C.3       1 <0>        -0.1454
      5 C5         -0.1543   -0.6147   -1.6496 C.2       1 <0>         0.3699
      6 O1          0.0043    0.1333   -2.5846 O.2       1 <0>        -0.4063
      7 C6          0.3340   -2.0212   -1.7291 C.2       1 <0>         0.4723
      8 O2          0.0465   -2.8136   -0.8560 O.2       1 <0>        -0.4773
      9 N1          1.0946   -2.4126   -2.7706 N.am      1 <0>        -0.5784
     10 C7          1.5793   -1.4337   -3.7532 C.3       1 <0>         0.0722
     11 C8          3.1004   -1.5689   -3.8749 C.3       1 <0>        -0.1393
     12 C9          3.4546   -3.0204   -4.2063 C.3       1 <0>        -0.1194
     13 C10         2.9773   -3.9347   -3.0757 C.3       1 <0>        -0.1252
     14 C11         1.4598   -3.8254   -2.9416 C.3       1 <0>         0.1499
     15 C12         1.0027   -4.6142   -1.7417 C.2       1 <0>         0.4764
     16 O3          1.5358   -4.4476   -0.6703 O.2       1 <0>        -0.4862
     17 O4          0.0032   -5.5019   -1.8632 O.3       1 <0>        -0.3541
     18 C13        -0.3786   -6.2143   -0.6847 C.3       1 <0>         0.0724
     19 C14        -1.5240   -7.1728   -1.0168 C.3       1 <0>        -0.1189
     20 C15        -1.9327   -7.9356    0.2450 C.3       1 <0>        -0.1123
     21 C16        -3.0781   -8.8941   -0.0871 C.3       1 <0>        -0.0849
     22 C17        -4.3149   -8.0898   -0.4923 C.3       1 <0>        -0.1171
     23 C18        -5.4603   -9.0483   -0.8244 C.3       1 <0>        -0.1206
     24 C19        -5.7856   -9.8994    0.4047 C.3       1 <0>        -0.1210
     25 C20        -4.5488  -10.7038    0.8099 C.3       1 <0>        -0.1203
     26 C21        -3.4034   -9.7453    1.1420 C.3       1 <0>        -0.1151
     27 H1         -0.3503    1.9394   -0.7598 H         1 <0>         0.0628
     28 H2         -1.9189    1.4327   -1.4312 H         1 <0>         0.0631
     29 H3         -1.7431    1.6933    0.3208 H         1 <0>         0.0702
     30 H4         -0.3970    0.0968    1.6924 H         1 <0>         0.0740
     31 H5          0.3861   -1.3013    0.9176 H         1 <0>         0.0767
     32 H6          0.9958    0.3428    0.6118 H         1 <0>         0.0572
     33 H7         -2.7748   -0.8750   -1.0021 H         1 <0>         0.0565
     34 H8         -1.8158   -2.0125   -0.0249 H         1 <0>         0.0813
     35 H9         -2.5990   -0.6144    0.7499 H         1 <0>         0.0723
     36 H10         1.1167   -1.6275   -4.7210 H         1 <0>         0.0783
     37 H11         1.3275   -0.4267   -3.4207 H         1 <0>         0.1351
     38 H12         3.4613   -0.9158   -4.6694 H         1 <0>         0.0846
     39 H13         3.5673   -1.2869   -2.9312 H         1 <0>         0.0693
     40 H14         2.9673   -3.3096   -5.1374 H         1 <0>         0.0708
     41 H15         4.5348   -3.1143   -4.3177 H         1 <0>         0.0770
     42 H16         3.2505   -4.9655   -3.3014 H         1 <0>         0.0853
     43 H17         3.4454   -3.6304   -2.1395 H         1 <0>         0.0838
     44 H18         0.9873   -4.2186   -3.8417 H         1 <0>         0.1077
     45 H19         0.4737   -6.7821   -0.3113 H         1 <0>         0.0629
     46 H20        -0.7060   -5.5071    0.0774 H         1 <0>         0.0704
     47 H21        -2.3762   -6.6050   -1.3902 H         1 <0>         0.0751
     48 H22        -1.1966   -7.8800   -1.7789 H         1 <0>         0.0718
     49 H23        -1.0805   -8.5034    0.6183 H         1 <0>         0.0657
     50 H24        -2.2601   -7.2284    1.0070 H         1 <0>         0.0663
     51 H25        -2.7812   -9.5436   -0.9106 H         1 <0>         0.0710
     52 H26        -4.6118   -7.4403    0.3312 H         1 <0>         0.0617
     53 H27        -4.0832   -7.4834   -1.3679 H         1 <0>         0.0638
     54 H28        -6.3415   -8.4753   -1.1130 H         1 <0>         0.0605
     55 H29        -5.1634   -9.6978   -1.6479 H         1 <0>         0.0608
     56 H30        -6.0825   -9.2500    1.2282 H         1 <0>         0.0608
     57 H31        -6.6016  -10.5823    0.1681 H         1 <0>         0.0599
     58 H32        -4.7805  -11.3101    1.6855 H         1 <0>         0.0608
     59 H33        -4.2519  -11.3532   -0.0136 H         1 <0>         0.0609
     60 H34        -2.5222  -10.3183    1.4306 H         1 <0>         0.0614
     61 H35        -3.7003   -9.0958    1.9655 H         1 <0>         0.0621
@<TRIPOS>BOND
     1    1    2 1
     2    1   27 1
     3    1   28 1
     4    1   29 1
     5    2    3 1
     6    2    4 1
     7    2    5 1
     8    3   30 1
     9    3   31 1
    10    3   32 1
    11    4   33 1
    12    4   34 1
    13    4   35 1
    14    5    6 2
    15    5    7 1
    16    7    8 2
    17    7    9 am
    18    9   14 1
    19    9   10 1
    20   10   11 1
    21   10   36 1
    22   10   37 1
    23   11   12 1
    24   11   38 1
    25   11   39 1
    26   12   13 1
    27   12   40 1
    28   12   41 1
    29   13   14 1
    30   13   42 1
    31   13   43 1
    32   14   15 1
    33   14   44 1
    34   15   16 2
    35   15   17 1
    36   17   18 1
    37   18   19 1
    38   18   45 1
    39   18   46 1
    40   19   20 1
    41   19   47 1
    42   19   48 1
    43   20   21 1
    44   20   49 1
    45   20   50 1
    46   21   26 1
    47   21   22 1
    48   21   51 1
    49   22   23 1
    50   22   52 1
    51   22   53 1
    52   23   24 1
    53   23   54 1
    54   23   55 1
    55   24   25 1
    56   24   56 1
    57   24   57 1
    58   25   26 1
    59   25   58 1
    60   25   59 1
    61   26   60 1
    62   26   61 1
@<TRIPOS>MOLECULE
CHEMBL417492
   59    61     0     0     0
SMALL
USER_CHARGES

@<TRIPOS>ATOM
      1 C1          5.1194   -4.7435   12.0301 C.3       1 <0>        -0.1468
      2 C2          4.6856   -5.6916   10.9103 C.3       1 <0>        -0.0953
      3 C3          4.3545   -4.8929    9.6760 C.ar      1 <0>        -0.0236
      4 C4          3.0669   -4.4311    9.4764 C.ar      1 <0>        -0.1462
      5 C5          2.7632   -3.6985    8.3442 C.ar      1 <0>         0.0005
      6 C6          3.7471   -3.4272    7.4118 C.ar      1 <0>        -0.6809
      7 C7          5.0348   -3.8882    7.6119 C.ar      1 <0>        -0.0220
      8 C8          5.3396   -4.6172    8.7462 C.ar      1 <0>        -0.1469
      9 S1          3.3596   -2.4944    5.9681 S.o2      1 <0>         2.6855
     10 O1          4.3271   -2.8431    4.9875 O.2       1 <0>        -0.9572
     11 O2          1.9638   -2.6462    5.7490 O.2       1 <0>        -0.9364
     12 N1          3.6105   -0.8989    6.3341 N.pl3     1 <0>        -0.9864
     13 C9          4.9616   -0.3236    6.2872 C.3       1 <0>         0.1225
     14 C10         5.2569    0.3516    7.6302 C.3       1 <0>        -0.1383
     15 C11         4.1528    1.3648    7.9409 C.3       1 <0>        -0.1160
     16 C12         2.8092    0.6403    8.0497 C.3       1 <0>        -0.1204
     17 C13         2.4854   -0.0303    6.7060 C.3       1 <0>         0.1375
     18 C14         1.2322   -0.8565    6.8405 C.2       1 <0>         0.5220
     19 O3          1.1330   -1.6659    7.7383 O.2       1 <0>        -0.5361
     20 N2          0.2218   -0.6960    5.9631 N.am      1 <0>        -0.7074
     21 C15        -0.9964   -1.4992    6.0939 C.3       1 <0>         0.1249
     22 C16        -1.9766   -1.1239    4.9807 C.3       1 <0>        -0.1263
     23 C17        -3.2489   -1.9628    5.1173 C.3       1 <0>        -0.0777
     24 C18        -4.2144   -1.5931    4.0209 C.ar      1 <0>        -0.0822
     25 C19        -5.1322   -0.5789    4.2211 C.ar      1 <0>        -0.1178
     26 C20        -6.0179   -0.2398    3.2154 C.ar      1 <0>        -0.1187
     27 C21        -5.9855   -0.9145    2.0093 C.ar      1 <0>        -0.1249
     28 C22        -5.0671   -1.9281    1.8088 C.ar      1 <0>        -0.1181
     29 C23        -4.1786   -2.2643    2.8130 C.ar      1 <0>        -0.1172
     30 H1          4.3089   -4.0496   12.2530 H         1 <0>         0.0576
     31 H2          5.3589   -5.3212   12.9229 H         1 <0>         0.0622
     32 H3          5.9994   -4.1843   11.7122 H         1 <0>         0.0569
     33 H4          5.4961   -6.3855   10.6874 H         1 <0>         0.0769
     34 H5          3.8056   -6.2507   11.2282 H         1 <0>         0.0774
     35 H6          2.2982   -4.6431   10.2048 H         1 <0>         0.1290
     36 H7          1.7570   -3.3383    8.1878 H         1 <0>         0.1695
     37 H8          5.8035   -3.6766    6.8834 H         1 <0>         0.1339
     38 H9          6.3465   -4.9742    8.9044 H         1 <0>         0.1295
     39 H10         5.6896   -1.1149    6.1081 H         1 <0>         0.0897
     40 H11         5.0169    0.4145    5.4871 H         1 <0>         0.0804
     41 H12         5.2908   -0.4023    8.4168 H         1 <0>         0.0700
     42 H13         6.2170    0.8648    7.5761 H         1 <0>         0.0797
     43 H14         4.3734    1.8643    8.8843 H         1 <0>         0.0716
     44 H15         4.1031    2.1042    7.1416 H         1 <0>         0.0676
     45 H16         2.8661   -0.1163    8.8323 H         1 <0>         0.0824
     46 H17         2.0270    1.3590    8.2940 H         1 <0>         0.0782
     47 H18         2.3428    0.7313    5.9393 H         1 <0>         0.0956
     48 H19         0.3012   -0.0487    5.2451 H         1 <0>         0.3974
     49 H20        -0.7445   -2.5568    6.0149 H         1 <0>         0.0791
     50 H21        -1.4562   -1.3067    7.0632 H         1 <0>         0.0655
     51 H22        -2.2285   -0.0664    5.0597 H         1 <0>         0.0689
     52 H23        -1.5168   -1.3165    4.0114 H         1 <0>         0.0717
     53 H24        -2.9970   -3.0203    5.0383 H         1 <0>         0.0771
     54 H25        -3.7087   -1.7702    6.0866 H         1 <0>         0.0758
     55 H26        -5.1575   -0.0518    5.1634 H         1 <0>         0.1209
     56 H27        -6.7354    0.5521    3.3720 H         1 <0>         0.1213
     57 H28        -6.6779   -0.6501    1.2238 H         1 <0>         0.1207
     58 H29        -5.0420   -2.4555    0.8667 H         1 <0>         0.1215
     59 H30        -3.4586   -3.0537    2.6550 H         1 <0>         0.1217
@<TRIPOS>BOND
     1    1    2 1
     2    1   30 1
     3    1   31 1
     4    1   32 1
     5    2    3 1
     6    2   33 1
     7    2   34 1
     8    3    8 ar
     9    3    4 ar
    10    4    5 ar
    11    4   35 1
    12    5    6 ar
    13    5   36 1
    14    6    7 ar
    15    6    9 1
    16    7    8 ar
    17    7   37 1
    18    8   38 1
    19    9   10 2
    20    9   11 2
    21    9   12 1
    22   12   17 1
    23   12   13 1
    24   13   14 1
    25   13   39 1
    26   13   40 1
    27   14   15 1
    28   14   41 1
    29   14   42 1
    30   15   16 1
    31   15   43 1
    32   15   44 1
    33   16   17 1
    34   16   45 1
    35   16   46 1
    36   17   18 1
    37   17   47 1
    38   18   19 2
    39   18   20 am
    40   20   21 1
    41   20   48 1
    42   21   22 1
    43   21   49 1
    44   21   50 1
    45   22   23 1
    46   22   51 1
    47   22   52 1
    48   23   24 1
    49   23   53 1
    50   23   54 1
    51   24   29 ar
    52   24   25 ar
    53   25   26 ar
    54   25   55 1
    55   26   27 ar
    56   26   56 1
    57   27   28 ar
    58   27   57 1
    59   28   29 ar
    60   28   58 1
    61   29   59 1
@<TRIPOS>MOLECULE
CHEMBL417492__1
   59    61     0     0     0
SMALL
USER_CHARGES

@<TRIPOS>ATOM
      1 C1         -1.6925    3.8177    2.3936 C.3       1 <0>        -0.1465
      2 C2         -1.5251    2.5389    1.5704 C.3       1 <0>        -0.0945
      3 C3         -0.5360    1.6287    2.2519 C.ar      1 <0>        -0.0241
      4 C4          0.8108    1.7263    1.9560 C.ar      1 <0>        -0.1484
      5 C5          1.7180    0.8914    2.5811 C.ar      1 <0>        -0.0210
      6 C6          1.2785   -0.0408    3.5024 C.ar      1 <0>        -0.6737
      7 C7         -0.0682   -0.1378    3.7989 C.ar      1 <0>         0.0270
      8 C8         -0.9749    0.7000    3.1770 C.ar      1 <0>        -0.1480
      9 S1          2.4348   -1.1058    4.2983 S.o2      1 <0>         2.6899
     10 O1          1.6739   -2.0516    5.0372 O.2       1 <0>        -0.9445
     11 O2          3.3781   -1.4932    3.3087 O.2       1 <0>        -0.9588
     12 N1          3.2594   -0.1924    5.4065 N.pl3     1 <0>        -0.9859
     13 C9          4.4942    0.5084    5.0286 C.3       1 <0>         0.1193
     14 C10         4.3528    1.9890    5.3954 C.3       1 <0>        -0.1388
     15 C11         3.9892    2.1110    6.8769 C.3       1 <0>        -0.1152
     16 C12         2.6481    1.4196    7.1333 C.3       1 <0>        -0.1228
     17 C13         2.7669   -0.0625    6.7846 C.3       1 <0>         0.1413
     18 C14         1.4144   -0.7169    6.9015 C.2       1 <0>         0.5150
     19 O3          0.4924   -0.3305    6.2148 O.2       1 <0>        -0.5329
     20 N2          1.2294   -1.7314    7.7692 N.am      1 <0>        -0.7073
     21 C15        -0.0854   -2.3675    7.8829 C.3       1 <0>         0.1229
     22 C16        -0.0243   -3.4812    8.9302 C.3       1 <0>        -0.1262
     23 C17        -1.3974   -4.1455    9.0489 C.3       1 <0>        -0.0777
     24 C18        -1.3373   -5.2424   10.0805 C.ar      1 <0>        -0.0826
     25 C19        -0.9985   -6.5284    9.7031 C.ar      1 <0>        -0.1171
     26 C20        -0.9433   -7.5346   10.6494 C.ar      1 <0>        -0.1180
     27 C21        -1.2265   -7.2547   11.9731 C.ar      1 <0>        -0.1247
     28 C22        -1.5644   -5.9686   12.3507 C.ar      1 <0>        -0.1186
     29 C23        -1.6154   -4.9615   11.4052 C.ar      1 <0>        -0.1178
     30 H1         -0.7310    4.3240    2.4779 H         1 <0>         0.0565
     31 H2         -2.4079    4.4760    1.9007 H         1 <0>         0.0615
     32 H3         -2.0580    3.5640    3.3887 H         1 <0>         0.0575
     33 H4         -2.4866    2.0325    1.4861 H         1 <0>         0.0767
     34 H5         -1.1596    2.7926    0.5754 H         1 <0>         0.0763
     35 H6          1.1541    2.4546    1.2363 H         1 <0>         0.1279
     36 H7          2.7701    0.9671    2.3495 H         1 <0>         0.1276
     37 H8         -0.4116   -0.8663    4.5184 H         1 <0>         0.1538
     38 H9         -2.0266    0.6268    3.4114 H         1 <0>         0.1275
     39 H10         5.3383    0.0776    5.5670 H         1 <0>         0.0801
     40 H11         4.6553    0.4117    3.9549 H         1 <0>         0.0938
     41 H12         5.2965    2.5017    5.2090 H         1 <0>         0.0803
     42 H13         3.5671    2.4405    4.7896 H         1 <0>         0.0701
     43 H14         4.7631    1.6375    7.4810 H         1 <0>         0.0678
     44 H15         3.9121    3.1643    7.1464 H         1 <0>         0.0716
     45 H16         2.3784    1.5270    8.1840 H         1 <0>         0.0787
     46 H17         1.8785    1.8764    6.5112 H         1 <0>         0.0813
     47 H18         3.4670   -0.5410    7.4695 H         1 <0>         0.0949
     48 H19         1.9668   -2.0404    8.3185 H         1 <0>         0.3992
     49 H20        -0.8235   -1.6246    8.1851 H         1 <0>         0.0669
     50 H21        -0.3690   -2.7903    6.9191 H         1 <0>         0.0781
     51 H22         0.7138   -4.2241    8.6280 H         1 <0>         0.0724
     52 H23         0.2593   -3.0584    9.8940 H         1 <0>         0.0695
     53 H24        -2.1356   -3.4026    9.3512 H         1 <0>         0.0758
     54 H25        -1.6811   -4.5683    8.0851 H         1 <0>         0.0773
     55 H26        -0.7772   -6.7470    8.6689 H         1 <0>         0.1218
     56 H27        -0.6793   -8.5394   10.3544 H         1 <0>         0.1217
     57 H28        -1.1841   -8.0410   12.7123 H         1 <0>         0.1208
     58 H29        -1.7860   -5.7500   13.3849 H         1 <0>         0.1214
     59 H30        -1.8758   -3.9559   11.7008 H         1 <0>         0.1209
@<TRIPOS>BOND
     1    1    2 1
     2    1   30 1
     3    1   31 1
     4    1   32 1
     5    2    3 1
     6    2   33 1
     7    2   34 1
     8    3    8 ar
     9    3    4 ar
    10    4    5 ar
    11    4   35 1
    12    5    6 ar
    13    5   36 1
    14    6    7 ar
    15    6    9 1
    16    7    8 ar
    17    7   37 1
    18    8   38 1
    19    9   10 2
    20    9   11 2
    21    9   12 1
    22   12   17 1
    23   12   13 1
    24   13   14 1
    25   13   39 1
    26   13   40 1
    27   14   15 1
    28   14   41 1
    29   14   42 1
    30   15   16 1
    31   15   43 1
    32   15   44 1
    33   16   17 1
    34   16   45 1
    35   16   46 1
    36   17   18 1
    37   17   47 1
    38   18   19 2
    39   18   20 am
    40   20   21 1
    41   20   48 1
    42   21   22 1
    43   21   49 1
    44   21   50 1
    45   22   23 1
    46   22   51 1
    47   22   52 1
    48   23   24 1
    49   23   53 1
    50   23   54 1
    51   24   29 ar
    52   24   25 ar
    53   25   26 ar
    54   25   55 1
    55   26   27 ar
    56   26   56 1
    57   27   28 ar
    58   27   57 1
    59   28   29 ar
    60   28   58 1
    61   29   59 1
@<TRIPOS>MOLECULE
CHEMBL201714
   67    72     0     0     0
SMALL
USER_CHARGES

@<TRIPOS>ATOM
      1 C1         -0.0173    1.4248    0.0099 C.3       1 <0>         0.0252
      2 O1          0.0021   -0.0041    0.0020 O.3       1 <0>        -0.3102
      3 C2          0.6053   -0.6066   -1.0549 C.ar      1 <0>         0.1790
      4 C3          0.6940   -1.9912   -1.1142 C.ar      1 <0>        -0.1791
      5 C4          1.2675   -2.5930   -2.2109 C.ar      1 <0>         0.0020
      6 C5          1.7397   -1.8387   -3.2791 C.ar      1 <0>        -0.1663
      7 C6          1.7575   -0.4622   -3.1638 C.ar      1 <0>         0.1911
      8 C7          1.1677    0.1545   -2.0647 C.ar      1 <0>        -0.3051
      9 O2          2.4012    0.3255   -4.0663 O.3       1 <0>        -0.3095
     10 C8          2.3530    1.7367   -3.8466 C.3       1 <0>         0.0228
     11 C9          2.1692   -2.5751   -4.5166 C.3       1 <0>         0.2028
     12 C10         2.1597   -1.6838   -5.7479 C.3       1 <0>         0.1556
     13 C11         0.8453   -0.9447   -5.9439 C.3       1 <0>        -0.1170
     14 C12        -0.2925   -1.8900   -6.3232 C.3       1 <0>        -0.1287
     15 C13         0.0881   -2.6898   -7.5730 C.3       1 <0>        -0.1219
     16 C14         1.3476   -3.5113   -7.2278 C.3       1 <0>         0.1450
     17 N1          2.4145   -2.5332   -6.9329 N.pl3     1 <0>        -1.0023
     18 S1          3.7859   -2.3924   -7.8486 S.o2      1 <0>         2.6919
     19 O3          3.4682   -2.9015   -9.1367 O.2       1 <0>        -0.9465
     20 O4          4.2731   -1.0724   -7.6501 O.2       1 <0>        -0.9448
     21 C15         4.9871   -3.4815   -7.1589 C.ar      1 <0>        -0.6834
     22 C16         5.8406   -3.0283   -6.1693 C.ar      1 <0>        -0.0142
     23 C17         6.7833   -3.8771   -5.6256 C.ar      1 <0>        -0.1337
     24 C18         6.8743   -5.1928   -6.0752 C.ar      1 <0>         0.0189
     25 C19         6.0119   -5.6440   -7.0723 C.ar      1 <0>        -0.1326
     26 C20         5.0692   -4.7882   -7.6051 C.ar      1 <0>        -0.0129
     27 C21         7.8862   -6.1099   -5.4947 C.ar      1 <0>        -0.0657
     28 C22         8.7450   -5.6601   -4.4939 C.ar      1 <0>        -0.1011
     29 C23         9.6840   -6.5175   -3.9571 C.ar      1 <0>        -0.1193
     30 C24         9.7737   -7.8210   -4.4113 C.ar      1 <0>        -0.1082
     31 C25         8.9239   -8.2726   -5.4049 C.ar      1 <0>        -0.1188
     32 C26         7.9771   -7.4256   -5.9444 C.ar      1 <0>        -0.1008
     33 C27         1.0471   -4.2458   -5.9476 C.2       1 <0>         0.5148
     34 O5          0.4641   -5.3080   -6.0183 O.2       1 <0>        -0.5346
     35 N2          1.3879   -3.7900   -4.7256 N.am      1 <0>        -0.5928
     36 C28         0.9204   -4.6112   -3.5991 C.3       1 <0>         0.1187
     37 C29         1.4358   -4.0890   -2.2664 C.3       1 <0>        -0.0930
     38 H1          1.0053    1.8021    0.0021 H         1 <0>         0.0570
     39 H2         -0.5445    1.7859   -0.8732 H         1 <0>         0.0571
     40 H3         -0.5275    1.7763    0.9067 H         1 <0>         0.1043
     41 H4          0.3128   -2.5953   -0.3035 H         1 <0>         0.1371
     42 H5          1.1486    1.2331   -2.0037 H         1 <0>         0.1401
     43 H6          2.9043    2.2464   -4.6367 H         1 <0>         0.1075
     44 H7          1.3154    2.0703   -3.8541 H         1 <0>         0.0574
     45 H8          2.8026    1.9696   -2.8814 H         1 <0>         0.0577
     46 H9          3.2117   -2.8917   -4.3581 H         1 <0>         0.0760
     47 H10         2.9810   -0.9656   -5.6805 H         1 <0>         0.1293
     48 H11         0.5641   -0.4160   -5.0348 H         1 <0>         0.0815
     49 H12         0.9689   -0.2081   -6.7449 H         1 <0>         0.0751
     50 H13        -0.4988   -2.5680   -5.4974 H         1 <0>         0.0680
     51 H14        -1.1900   -1.3034   -6.5336 H         1 <0>         0.0727
     52 H15        -0.7262   -3.3602   -7.8460 H         1 <0>         0.0876
     53 H16         0.3036   -2.0110   -8.3967 H         1 <0>         0.0879
     54 H17         1.6235   -4.1895   -8.0326 H         1 <0>         0.1413
     55 H18         5.7695   -2.0082   -5.8218 H         1 <0>         0.1420
     56 H19         7.4495   -3.5221   -4.8532 H         1 <0>         0.1362
     57 H20         6.0784   -6.6628   -7.4248 H         1 <0>         0.1366
     58 H21         4.3971   -5.1383   -8.3746 H         1 <0>         0.1418
     59 H22         8.6763   -4.6424   -4.1391 H         1 <0>         0.1274
     60 H23        10.3501   -6.1700   -3.1814 H         1 <0>         0.1275
     61 H24        10.5101   -8.4885   -3.9888 H         1 <0>         0.1261
     62 H25         8.9985   -9.2912   -5.7561 H         1 <0>         0.1278
     63 H26         7.3112   -7.7805   -6.7170 H         1 <0>         0.1279
     64 H27        -0.1698   -4.6123   -3.5867 H         1 <0>         0.0726
     65 H28         1.2704   -5.6356   -3.7388 H         1 <0>         0.0820
     66 H29         2.4932   -4.3368   -2.1604 H         1 <0>         0.0908
     67 H30         0.8758   -4.5477   -1.4513 H         1 <0>         0.0985
@<TRIPOS>BOND
     1    1    2 1
     2    1   38 1
     3    1   39 1
     4    1   40 1
     5    2    3 1
     6    3    8 ar
     7    3    4 ar
     8    4    5 ar
     9    4   41 1
    10    5   37 1
    11    5    6 ar
    12    6    7 ar
    13    6   11 1
    14    7    8 ar
    15    7    9 1
    16    8   42 1
    17    9   10 1
    18   10   43 1
    19   10   44 1
    20   10   45 1
    21   11   35 1
    22   11   12 1
    23   11   46 1
    24   12   17 1
    25   12   13 1
    26   12   47 1
    27   13   14 1
    28   13   48 1
    29   13   49 1
    30   14   15 1
    31   14   50 1
    32   14   51 1
    33   15   16 1
    34   15   52 1
    35   15   53 1
    36   16   17 1
    37   16   33 1
    38   16   54 1
    39   17   18 1
    40   18   19 2
    41   18   20 2
    42   18   21 1
    43   21   26 ar
    44   21   22 ar
    45   22   23 ar
    46   22   55 1
    47   23   24 ar
    48   23   56 1
    49   24   25 ar
    50   24   27 1
    51   25   26 ar
    52   25   57 1
    53   26   58 1
    54   27   32 ar
    55   27   28 ar
    56   28   29 ar
    57   28   59 1
    58   29   30 ar
    59   29   60 1
    60   30   31 ar
    61   30   61 1
    62   31   32 ar
    63   31   62 1
    64   32   63 1
    65   33   34 2
    66   33   35 am
    67   35   36 1
    68   36   37 1
    69   36   64 1
    70   36   65 1
    71   37   66 1
    72   37   67 1
@<TRIPOS>MOLECULE
CHEMBL201714__1
   67    72     0     0     0
SMALL
USER_CHARGES

@<TRIPOS>ATOM
      1 C1         -0.0173    1.4248    0.0099 C.3       1 <0>         0.0255
      2 O1          0.0021   -0.0041    0.0020 O.3       1 <0>        -0.3120
      3 C2          0.6058   -0.6071   -1.0557 C.ar      1 <0>         0.1737
      4 C3          0.6563   -1.9891   -1.1311 C.ar      1 <0>        -0.1881
      5 C4          1.2735   -2.6171   -2.2046 C.ar      1 <0>         0.0083
      6 C5          1.8472   -1.8549   -3.1996 C.ar      1 <0>        -0.1695
      7 C6          1.7909   -0.4654   -3.1313 C.ar      1 <0>         0.1833
      8 C7          1.1677    0.1592   -2.0648 C.ar      1 <0>        -0.2907
      9 O2          2.3470    0.2822   -4.1206 O.3       1 <0>        -0.3056
     10 C8          2.2549    1.7023   -3.9903 C.3       1 <0>         0.0168
     11 C9          2.5584   -2.4827   -4.3680 C.3       1 <0>         0.2012
     12 C10         2.2655   -1.7287   -5.6531 C.3       1 <0>         0.1292
     13 C11         3.5418   -1.6476   -6.5007 C.3       1 <0>        -0.1260
     14 C12         3.9869   -3.0634   -6.8739 C.3       1 <0>        -0.1274
     15 C13         2.8831   -3.7593   -7.6729 C.3       1 <0>        -0.1245
     16 C14         1.6087   -3.8298   -6.8232 C.3       1 <0>         0.1384
     17 N1          1.2449   -2.4497   -6.4342 N.pl3     1 <0>        -0.9936
     18 S1         -0.2053   -1.7644   -6.8463 S.o2      1 <0>         2.6888
     19 O3         -1.1128   -2.8356   -7.0659 O.2       1 <0>        -0.9498
     20 O4         -0.4541   -0.7379   -5.8957 O.2       1 <0>        -0.9428
     21 C15         0.0186   -0.9671   -8.4015 C.ar      1 <0>        -0.6797
     22 C16         0.4287    0.3531   -8.4463 C.ar      1 <0>        -0.0128
     23 C17         0.6056    0.9826   -9.6618 C.ar      1 <0>        -0.1339
     24 C18         0.3702    0.2857  -10.8451 C.ar      1 <0>         0.0182
     25 C19        -0.0428   -1.0441  -10.7941 C.ar      1 <0>        -0.1326
     26 C20        -0.2111   -1.6654   -9.5732 C.ar      1 <0>        -0.0147
     27 C21         0.5583    0.9573  -12.1549 C.ar      1 <0>        -0.0659
     28 C22         0.9764    2.2855  -12.2060 C.ar      1 <0>        -0.1014
     29 C23         1.1501    2.9051  -13.4269 C.ar      1 <0>        -0.1193
     30 C24         0.9095    2.2102  -14.5985 C.ar      1 <0>        -0.1082
     31 C25         0.4939    0.8917  -14.5536 C.ar      1 <0>        -0.1188
     32 C26         0.3229    0.2604  -13.3383 C.ar      1 <0>        -0.1010
     33 C27         1.9162   -4.5671   -5.5417 C.2       1 <0>         0.5268
     34 O5          1.8391   -5.7772   -5.5163 O.2       1 <0>        -0.5323
     35 N2          2.2733   -3.9055   -4.4316 N.am      1 <0>        -0.5937
     36 C28         2.3613   -4.6581   -3.1618 C.3       1 <0>         0.1036
     37 C29         1.2759   -4.1227   -2.2295 C.3       1 <0>        -0.1004
     38 H1          1.0053    1.8021    0.0021 H         1 <0>         0.0560
     39 H2         -0.5445    1.7859   -0.8732 H         1 <0>         0.0570
     40 H3         -0.5275    1.7763    0.9067 H         1 <0>         0.1031
     41 H4          0.2115   -2.5841   -0.3472 H         1 <0>         0.1344
     42 H5          1.1231    1.2373   -2.0172 H         1 <0>         0.1388
     43 H6          2.7371    2.1775   -4.8446 H         1 <0>         0.1038
     44 H7          1.2060    1.9967   -3.9550 H         1 <0>         0.0615
     45 H8          2.7514    2.0158   -3.0720 H         1 <0>         0.0582
     46 H9          3.6275   -2.3788   -4.1825 H         1 <0>         0.0878
     47 H10         1.9063   -0.7271   -5.4167 H         1 <0>         0.1528
     48 H11         3.3410   -1.0778   -7.4080 H         1 <0>         0.0764
     49 H12         4.3289   -1.1572   -5.9280 H         1 <0>         0.0836
     50 H13         4.8932   -3.0112   -7.4773 H         1 <0>         0.0749
     51 H14         4.1896   -3.6309   -5.9656 H         1 <0>         0.0678
     52 H15         2.6824   -3.1950   -8.5836 H         1 <0>         0.0832
     53 H16         3.2032   -4.7683   -7.9328 H         1 <0>         0.0870
     54 H17         0.7985   -4.3058   -7.3755 H         1 <0>         0.1383
     55 H18         0.6105    0.8925   -7.5285 H         1 <0>         0.1404
     56 H19         0.9255    2.0136   -9.6956 H         1 <0>         0.1359
     57 H20        -0.2269   -1.5888  -11.7083 H         1 <0>         0.1368
     58 H21        -0.5266   -2.6975   -9.5326 H         1 <0>         0.1418
     59 H22         1.1638    2.8292  -11.2918 H         1 <0>         0.1274
     60 H23         1.4742    3.9346  -13.4677 H         1 <0>         0.1275
     61 H24         1.0464    2.6991  -15.5518 H         1 <0>         0.1262
     62 H25         0.3071    0.3539  -15.4714 H         1 <0>         0.1278
     63 H26         0.0026   -0.7705  -13.3045 H         1 <0>         0.1280
     64 H27         2.1973   -5.7193   -3.3489 H         1 <0>         0.1087
     65 H28         3.3424   -4.5088   -2.7109 H         1 <0>         0.0806
     66 H29         1.4548   -4.4964   -1.2213 H         1 <0>         0.0966
     67 H30         0.3037   -4.4759   -2.5731 H         1 <0>         0.0885
@<TRIPOS>BOND
     1    1    2 1
     2    1   38 1
     3    1   39 1
     4    1   40 1
     5    2    3 1
     6    3    8 ar
     7    3    4 ar
     8    4    5 ar
     9    4   41 1
    10    5   37 1
    11    5    6 ar
    12    6    7 ar
    13    6   11 1
    14    7    8 ar
    15    7    9 1
    16    8   42 1
    17    9   10 1
    18   10   43 1
    19   10   44 1
    20   10   45 1
    21   11   35 1
    22   11   12 1
    23   11   46 1
    24   12   17 1
    25   12   13 1
    26   12   47 1
    27   13   14 1
    28   13   48 1
    29   13   49 1
    30   14   15 1
    31   14   50 1
    32   14   51 1
    33   15   16 1
    34   15   52 1
    35   15   53 1
    36   16   17 1
    37   16   33 1
    38   16   54 1
    39   17   18 1
    40   18   19 2
    41   18   20 2
    42   18   21 1
    43   21   26 ar
    44   21   22 ar
    45   22   23 ar
    46   22   55 1
    47   23   24 ar
    48   23   56 1
    49   24   25 ar
    50   24   27 1
    51   25   26 ar
    52   25   57 1
    53   26   58 1
    54   27   32 ar
    55   27   28 ar
    56   28   29 ar
    57   28   59 1
    58   29   30 ar
    59   29   60 1
    60   30   31 ar
    61   30   61 1
    62   31   32 ar
    63   31   62 1
    64   32   63 1
    65   33   34 2
    66   33   35 am
    67   35   36 1
    68   36   37 1
    69   36   64 1
    70   36   65 1
    71   37   66 1
    72   37   67 1
@<TRIPOS>MOLECULE
CHEMBL201714__2
   67    72     0     0     0
SMALL
USER_CHARGES

@<TRIPOS>ATOM
      1 C1         -0.0173    1.4248    0.0099 C.3       1 <0>         0.0247
      2 O1          0.0021   -0.0041    0.0020 O.3       1 <0>        -0.3112
      3 C2          0.6058   -0.6071   -1.0557 C.ar      1 <0>         0.1745
      4 C3          0.6564   -1.9891   -1.1314 C.ar      1 <0>        -0.1846
      5 C4          1.2678   -2.6171   -2.2081 C.ar      1 <0>         0.0153
      6 C5          1.8230   -1.8553   -3.2138 C.ar      1 <0>        -0.1684
      7 C6          1.7806   -0.4657   -3.1376 C.ar      1 <0>         0.1707
      8 C7          1.1678    0.1590   -2.0650 C.ar      1 <0>        -0.2954
      9 O2          2.3394    0.2821   -4.1252 O.3       1 <0>        -0.3038
     10 C8          2.2617    1.7022   -3.9866 C.3       1 <0>         0.0185
     11 C9          2.4698   -2.4831   -4.4190 C.3       1 <0>         0.1963
     12 C10         3.7212   -1.7235   -4.8227 C.3       1 <0>         0.1306
     13 C11         3.7986   -1.6419   -6.3528 C.3       1 <0>        -0.1228
     14 C12         3.8982   -3.0570   -6.9267 C.3       1 <0>        -0.1288
     15 C13         5.1514   -3.7479   -6.3854 C.3       1 <0>        -0.1216
     16 C14         5.0717   -3.8188   -4.8559 C.3       1 <0>         0.1389
     17 N1          4.9171   -2.4393   -4.3441 N.pl3     1 <0>        -0.9933
     18 S1          6.0094   -1.7492   -3.3083 S.o2      1 <0>         2.6895
     19 O3          7.2394   -2.4347   -3.4994 O.2       1 <0>        -0.9498
     20 O4          5.8884   -0.3425   -3.4685 O.2       1 <0>        -0.9465
     21 C15         5.4774   -2.1170   -1.6693 C.ar      1 <0>        -0.6795
     22 C16         4.6143   -1.2562   -1.0155 C.ar      1 <0>        -0.0055
     23 C17         4.1944   -1.5393    0.2684 C.ar      1 <0>        -0.1275
     24 C18         4.6415   -2.6948    0.9059 C.ar      1 <0>         0.0203
     25 C19         5.5108   -3.5584    0.2427 C.ar      1 <0>        -0.1327
     26 C20         5.9199   -3.2683   -1.0432 C.ar      1 <0>        -0.0131
     27 C21         4.1938   -3.0042    2.2865 C.ar      1 <0>        -0.0637
     28 C22         3.3202   -2.1434    2.9477 C.ar      1 <0>        -0.0987
     29 C23         2.9067   -2.4363    4.2315 C.ar      1 <0>        -0.1187
     30 C24         3.3582   -3.5818    4.8618 C.ar      1 <0>        -0.1086
     31 C25         4.2258   -4.4397    4.2102 C.ar      1 <0>        -0.1190
     32 C26         4.6409   -4.1597    2.9240 C.ar      1 <0>        -0.1012
     33 C27         3.8165   -4.5616   -4.4653 C.2       1 <0>         0.5228
     34 O5          3.8388   -5.7717   -4.3874 O.2       1 <0>        -0.5335
     35 N2          2.6775   -3.9043   -4.2031 N.am      1 <0>        -0.5909
     36 C28         1.5463   -4.6609   -3.6246 C.3       1 <0>         0.1038
     37 C29         1.3001   -4.1226   -2.2162 C.3       1 <0>        -0.0987
     38 H1          1.0053    1.8021    0.0021 H         1 <0>         0.0564
     39 H2         -0.5445    1.7859   -0.8732 H         1 <0>         0.0569
     40 H3         -0.5275    1.7763    0.9067 H         1 <0>         0.1034
     41 H4          0.2163   -2.5841   -0.3449 H         1 <0>         0.1320
     42 H5          1.1314    1.2371   -2.0128 H         1 <0>         0.1396
     43 H6          2.7447    2.1776   -4.8404 H         1 <0>         0.1074
     44 H7          1.2159    2.0066   -3.9450 H         1 <0>         0.0583
     45 H8          2.7653    2.0058   -3.0689 H         1 <0>         0.0597
     46 H9          1.7656   -2.3848   -5.2451 H         1 <0>         0.0879
     47 H10         3.6968   -0.7221   -4.3929 H         1 <0>         0.1520
     48 H11         2.9023   -1.1551   -6.7374 H         1 <0>         0.0840
     49 H12         4.6788   -1.0683   -6.6430 H         1 <0>         0.0796
     50 H13         3.0160   -3.6282   -6.6378 H         1 <0>         0.0666
     51 H14         3.9545   -3.0041   -8.0140 H         1 <0>         0.0766
     52 H15         5.2156   -4.7566   -6.7934 H         1 <0>         0.0875
     53 H16         6.0347   -3.1801   -6.6776 H         1 <0>         0.0866
     54 H17         5.9624   -4.2909   -4.4414 H         1 <0>         0.1381
     55 H18         4.2687   -0.3607   -1.5105 H         1 <0>         0.1323
     56 H19         3.5207   -0.8664    0.7780 H         1 <0>         0.1311
     57 H20         5.8607   -4.4551    0.7324 H         1 <0>         0.1355
     58 H21         6.5900   -3.9394   -1.5600 H         1 <0>         0.1400
     59 H22         2.9677   -1.2483    2.4568 H         1 <0>         0.1256
     60 H23         2.2296   -1.7697    4.7450 H         1 <0>         0.1265
     61 H24         3.0324   -3.8070    5.8666 H         1 <0>         0.1255
     62 H25         4.5755   -5.3325    4.7071 H         1 <0>         0.1271
     63 H26         5.3148   -4.8325    2.4145 H         1 <0>         0.1272
     64 H27         0.6551   -4.5180   -4.2358 H         1 <0>         0.0797
     65 H28         1.7965   -5.7207   -3.5767 H         1 <0>         0.1076
     66 H29         2.0975   -4.4667   -1.5576 H         1 <0>         0.0866
     67 H30         0.3464   -4.5026   -1.8500 H         1 <0>         0.0944
@<TRIPOS>BOND
     1    1    2 1
     2    1   38 1
     3    1   39 1
     4    1   40 1
     5    2    3 1
     6    3    8 ar
     7    3    4 ar
     8    4    5 ar
     9    4   41 1
    10    5   37 1
    11    5    6 ar
    12    6    7 ar
    13    6   11 1
    14    7    8 ar
    15    7    9 1
    16    8   42 1
    17    9   10 1
    18   10   43 1
    19   10   44 1
    20   10   45 1
    21   11   35 1
    22   11   12 1
    23   11   46 1
    24   12   17 1
    25   12   13 1
    26   12   47 1
    27   13   14 1
    28   13   48 1
    29   13   49 1
    30   14   15 1
    31   14   50 1
    32   14   51 1
    33   15   16 1
    34   15   52 1
    35   15   53 1
    36   16   17 1
    37   16   33 1
    38   16   54 1
    39   17   18 1
    40   18   19 2
    41   18   20 2
    42   18   21 1
    43   21   26 ar
    44   21   22 ar
    45   22   23 ar
    46   22   55 1
    47   23   24 ar
    48   23   56 1
    49   24   25 ar
    50   24   27 1
    51   25   26 ar
    52   25   57 1
    53   26   58 1
    54   27   32 ar
    55   27   28 ar
    56   28   29 ar
    57   28   59 1
    58   29   30 ar
    59   29   60 1
    60   30   31 ar
    61   30   61 1
    62   31   32 ar
    63   31   62 1
    64   32   63 1
    65   33   34 2
    66   33   35 am
    67   35   36 1
    68   36   37 1
    69   36   64 1
    70   36   65 1
    71   37   66 1
    72   37   67 1
@<TRIPOS>MOLECULE
CHEMBL201714__3
   67    72     0     0     0
SMALL
USER_CHARGES

@<TRIPOS>ATOM
      1 C1         -0.0173    1.4248    0.0099 C.3       1 <0>         0.0255
      2 O1          0.0021   -0.0041    0.0020 O.3       1 <0>        -0.3102
      3 C2          0.6055   -0.6068   -1.0552 C.ar      1 <0>         0.1778
      4 C3          0.6374   -1.9917   -1.1461 C.ar      1 <0>        -0.1787
      5 C4          1.2784   -2.5959   -2.2057 C.ar      1 <0>         0.0020
      6 C5          1.9280   -1.8416   -3.1767 C.ar      1 <0>        -0.1613
      7 C6          1.8155   -0.4630   -3.1330 C.ar      1 <0>         0.1896
      8 C7          1.1684    0.1530   -2.0658 C.ar      1 <0>        -0.3047
      9 O2          2.2737    0.3307   -4.1370 O.3       1 <0>        -0.3101
     10 C8          2.1013    1.7405   -3.9794 C.3       1 <0>         0.0226
     11 C9          2.7357   -2.5722   -4.2093 C.3       1 <0>         0.2021
     12 C10         3.7899   -1.6814   -4.8523 C.3       1 <0>         0.1573
     13 C11         4.7015   -1.0114   -3.8380 C.3       1 <0>        -0.1175
     14 C12         5.6660   -1.9910   -3.1749 C.3       1 <0>        -0.1262
     15 C13         6.4492   -2.7693   -4.2380 C.3       1 <0>        -0.1255
     16 C14         5.4157   -3.5488   -5.0792 C.3       1 <0>         0.1427
     17 N1          4.5984   -2.5248   -5.7610 N.pl3     1 <0>        -1.0035
     18 S1          4.5831   -2.3287   -7.4042 S.o2      1 <0>         2.6913
     19 O3          4.9761   -3.5735   -7.9655 O.2       1 <0>        -0.9474
     20 O4          3.3486   -1.7033   -7.7270 O.2       1 <0>        -0.9452
     21 C15         5.8522   -1.1733   -7.8029 C.ar      1 <0>        -0.6792
     22 C16         5.5662    0.1795   -7.8384 C.ar      1 <0>        -0.0127
     23 C17         6.5565    1.0889   -8.1501 C.ar      1 <0>        -0.1341
     24 C18         7.8464    0.6420   -8.4293 C.ar      1 <0>         0.0183
     25 C19         8.1290   -0.7219   -8.3920 C.ar      1 <0>        -0.1332
     26 C20         7.1323   -1.6221   -8.0736 C.ar      1 <0>        -0.0137
     27 C21         8.9151    1.6150   -8.7655 C.ar      1 <0>        -0.0658
     28 C22         8.6338    2.9793   -8.7976 C.ar      1 <0>        -0.1015
     29 C23         9.6318    3.8799   -9.1104 C.ar      1 <0>        -0.1194
     30 C24        10.9092    3.4303   -9.3923 C.ar      1 <0>        -0.1083
     31 C25        11.1939    2.0770   -9.3624 C.ar      1 <0>        -0.1189
     32 C26        10.2050    1.1681   -9.0446 C.ar      1 <0>        -0.1010
     33 C27         4.5235   -4.2679   -4.1003 C.2       1 <0>         0.5194
     34 O5          4.8995   -5.3344   -3.6577 O.2       1 <0>        -0.5340
     35 N2          3.3316   -3.7952   -3.6818 N.am      1 <0>        -0.5950
     36 C28         2.6607   -4.6021   -2.6527 C.3       1 <0>         0.1181
     37 C29         1.2579   -4.0941   -2.3561 C.3       1 <0>        -0.0940
     38 H1          1.0053    1.8021    0.0021 H         1 <0>         0.0565
     39 H2         -0.5445    1.7859   -0.8732 H         1 <0>         0.0568
     40 H3         -0.5275    1.7763    0.9067 H         1 <0>         0.1041
     41 H4          0.1643   -2.5981   -0.3865 H         1 <0>         0.1375
     42 H5          1.1039    1.2316   -2.0310 H         1 <0>         0.1397
     43 H6          2.5094    2.2559   -4.8489 H         1 <0>         0.1050
     44 H7          1.0395    1.9687   -3.8871 H         1 <0>         0.0586
     45 H8          2.6236    2.0724   -3.0821 H         1 <0>         0.0572
     46 H9          2.0422   -2.8744   -5.0096 H         1 <0>         0.0815
     47 H10         3.2995   -0.9251   -5.4703 H         1 <0>         0.1276
     48 H11         5.2829   -0.2324   -4.3395 H         1 <0>         0.0718
     49 H12         4.1035   -0.5370   -3.0561 H         1 <0>         0.0799
     50 H13         6.3715   -1.4328   -2.5523 H         1 <0>         0.0708
     51 H14         5.1148   -2.6832   -2.5420 H         1 <0>         0.0684
     52 H15         6.9966   -2.0763   -4.8755 H         1 <0>         0.0847
     53 H16         7.1383   -3.4639   -3.7599 H         1 <0>         0.0874
     54 H17         5.8922   -4.2318   -5.7790 H         1 <0>         0.1445
     55 H18         4.5659    0.5248   -7.6222 H         1 <0>         0.1417
     56 H19         6.3320    2.1450   -8.1780 H         1 <0>         0.1357
     57 H20         9.1270   -1.0737   -8.6079 H         1 <0>         0.1366
     58 H21         7.3514   -2.6791   -8.0398 H         1 <0>         0.1427
     59 H22         7.6366    3.3314   -8.5784 H         1 <0>         0.1274
     60 H23         9.4148    4.9376   -9.1356 H         1 <0>         0.1274
     61 H24        11.6870    4.1384   -9.6370 H         1 <0>         0.1261
     62 H25        12.1929    1.7314   -9.5836 H         1 <0>         0.1278
     63 H26        10.4295    0.1120   -9.0172 H         1 <0>         0.1281
     64 H27         2.5964   -5.6351   -3.0021 H         1 <0>         0.0843
     65 H28         3.2541   -4.5795   -1.7374 H         1 <0>         0.0719
     66 H29         0.8948   -4.5450   -1.4310 H         1 <0>         0.0992
     67 H30         0.5885   -4.3662   -3.1749 H         1 <0>         0.0932
@<TRIPOS>BOND
     1    1    2 1
     2    1   38 1
     3    1   39 1
     4    1   40 1
     5    2    3 1
     6    3    8 ar
     7    3    4 ar
     8    4    5 ar
     9    4   41 1
    10    5   37 1
    11    5    6 ar
    12    6    7 ar
    13    6   11 1
    14    7    8 ar
    15    7    9 1
    16    8   42 1
    17    9   10 1
    18   10   43 1
    19   10   44 1
    20   10   45 1
    21   11   35 1
    22   11   12 1
    23   11   46 1
    24   12   17 1
    25   12   13 1
    26   12   47 1
    27   13   14 1
    28   13   48 1
    29   13   49 1
    30   14   15 1
    31   14   50 1
    32   14   51 1
    33   15   16 1
    34   15   52 1
    35   15   53 1
    36   16   17 1
    37   16   33 1
    38   16   54 1
    39   17   18 1
    40   18   19 2
    41   18   20 2
    42   18   21 1
    43   21   26 ar
    44   21   22 ar
    45   22   23 ar
    46   22   55 1
    47   23   24 ar
    48   23   56 1
    49   24   25 ar
    50   24   27 1
    51   25   26 ar
    52   25   57 1
    53   26   58 1
    54   27   32 ar
    55   27   28 ar
    56   28   29 ar
    57   28   59 1
    58   29   30 ar
    59   29   60 1
    60   30   31 ar
    61   30   61 1
    62   31   32 ar
    63   31   62 1
    64   32   63 1
    65   33   34 2
    66   33   35 am
    67   35   36 1
    68   36   37 1
    69   36   64 1
    70   36   65 1
    71   37   66 1
    72   37   67 1
@<TRIPOS>MOLECULE
CHEMBL150229
   51    53     0     0     0
SMALL
USER_CHARGES

@<TRIPOS>ATOM
      1 C1         -0.0167    1.3781    0.0096 C.ar      1 <0>        -0.1083
      2 C2          1.1709    2.0855    0.0021 C.ar      1 <0>        -0.1167
      3 C3          2.3773    1.4107   -0.0130 C.ar      1 <0>        -0.1042
      4 C4          2.3960    0.0285   -0.0201 C.ar      1 <0>        -0.0968
      5 C5          1.2084   -0.6789   -0.0117 C.ar      1 <0>        -0.1049
      6 C6          0.0021   -0.0041    0.0020 C.ar      1 <0>        -0.1167
      7 C7          3.7112   -0.7071   -0.0376 C.3       1 <0>        -0.5875
      8 S1          4.2568   -1.0108    1.6656 S.o2      1 <0>         2.6168
      9 O1          4.5927    0.2165    2.2981 O.2       1 <0>        -0.9222
     10 O2          3.3873   -1.9386    2.3000 O.2       1 <0>        -0.9378
     11 N1          5.6959   -1.8160    1.5142 N.pl3     1 <0>        -0.9974
     12 C8          5.8573   -3.2789    1.4302 C.3       1 <0>         0.1154
     13 C9          7.2071   -3.4877    0.6993 C.3       1 <0>        -0.1315
     14 C10         8.0570   -2.3251    1.2768 C.3       1 <0>        -0.1152
     15 C11         7.0238   -1.1899    1.4350 C.3       1 <0>         0.1624
     16 C12         7.3032   -0.4189    2.6993 C.2       1 <0>         0.4393
     17 O3          6.4803   -0.3900    3.5836 O.2       1 <0>        -0.4683
     18 O4          8.4661    0.2358    2.8431 O.3       1 <0>        -0.3508
     19 C13         8.6639    0.9459    4.0673 C.3       1 <0>         0.0647
     20 C14        10.0354    1.6237    4.0480 C.3       1 <0>        -0.1124
     21 C15        10.2471    2.3840    5.3587 C.3       1 <0>        -0.0746
     22 C16        11.5980    3.0516    5.3397 C.ar      1 <0>        -0.1343
     23 C17        12.7177    2.3843    5.8128 C.ar      1 <0>        -0.0723
     24 C18        13.9398    3.0376    5.7758 C.ar      1 <0>        -0.1699
     25 C19        14.0012    4.3234    5.2722 C.ar      1 <0>         0.0945
     26 N2         12.9154    4.9275    4.8311 N.ar      1 <0>        -0.4831
     27 C20        11.7375    4.3344    4.8453 C.ar      1 <0>         0.1027
     28 H1         -0.9591    1.9053    0.0259 H         1 <0>         0.1290
     29 H2          1.1563    3.1654    0.0076 H         1 <0>         0.1304
     30 H3          3.3051    1.9634   -0.0196 H         1 <0>         0.1297
     31 H4          1.2231   -1.7588   -0.0176 H         1 <0>         0.1302
     32 H5         -0.9258   -0.5567    0.0082 H         1 <0>         0.1307
     33 H6          3.5884   -1.6586   -0.5549 H         1 <0>         0.1406
     34 H7          4.4573   -0.1052   -0.5563 H         1 <0>         0.1398
     35 H8          5.8952   -3.7144    2.4287 H         1 <0>         0.0775
     36 H9          5.0424   -3.7180    0.8547 H         1 <0>         0.0846
     37 H10         7.6433   -4.4539    0.9528 H         1 <0>         0.0927
     38 H11         7.0872   -3.3858   -0.3792 H         1 <0>         0.0842
     39 H12         8.4831   -2.6010    2.2414 H         1 <0>         0.0845
     40 H13         8.8406   -2.0355    0.5765 H         1 <0>         0.1001
     41 H14         7.0684   -0.5229    0.5741 H         1 <0>         0.1160
     42 H15         7.8865    1.7018    4.1785 H         1 <0>         0.0727
     43 H16         8.6149    0.2487    4.9037 H         1 <0>         0.0687
     44 H17        10.8127    0.8678    3.9368 H         1 <0>         0.0762
     45 H18        10.0843    2.3209    3.2116 H         1 <0>         0.0780
     46 H19         9.4697    3.1399    5.4699 H         1 <0>         0.0822
     47 H20        10.1981    1.6868    6.1951 H         1 <0>         0.0798
     48 H21        12.6395    1.3795    6.2011 H         1 <0>         0.1343
     49 H22        14.8326    2.5483    6.1363 H         1 <0>         0.1361
     50 H23        14.9495    4.8393    5.2399 H         1 <0>         0.1561
     51 H24        10.8711    4.8592    4.4705 H         1 <0>         0.1550
@<TRIPOS>BOND
     1    1    6 ar
     2    1    2 ar
     3    1   28 1
     4    2    3 ar
     5    2   29 1
     6    3    4 ar
     7    3   30 1
     8    4    5 ar
     9    4    7 1
    10    5    6 ar
    11    5   31 1
    12    6   32 1
    13    7    8 1
    14    7   33 1
    15    7   34 1
    16    8    9 2
    17    8   10 2
    18    8   11 1
    19   11   15 1
    20   11   12 1
    21   12   13 1
    22   12   35 1
    23   12   36 1
    24   13   14 1
    25   13   37 1
    26   13   38 1
    27   14   15 1
    28   14   39 1
    29   14   40 1
    30   15   16 1
    31   15   41 1
    32   16   17 2
    33   16   18 1
    34   18   19 1
    35   19   20 1
    36   19   42 1
    37   19   43 1
    38   20   21 1
    39   20   44 1
    40   20   45 1
    41   21   22 1
    42   21   46 1
    43   21   47 1
    44   22   27 ar
    45   22   23 ar
    46   23   24 ar
    47   23   48 1
    48   24   25 ar
    49   24   49 1
    50   25   26 ar
    51   25   50 1
    52   26   27 ar
    53   27   51 1
@<TRIPOS>MOLECULE
CHEMBL150229__1
   51    53     0     0     0
SMALL
USER_CHARGES

@<TRIPOS>ATOM
      1 C1          2.5352    2.9776    6.3159 C.ar      1 <0>        -0.1075
      2 C2          1.9901    1.7354    6.0501 C.ar      1 <0>        -0.1166
      3 C3          2.7546    0.7629    5.4330 C.ar      1 <0>        -0.1041
      4 C4          4.0640    1.0327    5.0814 C.ar      1 <0>        -0.0986
      5 C5          4.6088    2.2752    5.3465 C.ar      1 <0>        -0.1039
      6 C6          3.8448    3.2473    5.9648 C.ar      1 <0>        -0.1169
      7 C7          4.8976   -0.0278    4.4097 C.3       1 <0>        -0.5819
      8 S1          4.7068    0.1026    2.6104 S.o2      1 <0>         2.6149
      9 O1          3.3811   -0.2422    2.2326 O.2       1 <0>        -0.9338
     10 O2          5.3050    1.3029    2.1406 O.2       1 <0>        -0.9381
     11 N1          5.6511   -1.1098    1.9933 N.pl3     1 <0>        -0.9972
     12 C8          5.2411   -2.5155    1.8220 C.3       1 <0>         0.1156
     13 C9          6.5660   -3.3181    1.8251 C.3       1 <0>        -0.1289
     14 C10         7.5152   -2.3554    1.0640 C.3       1 <0>        -0.1158
     15 C11         7.0349   -0.9612    1.5196 C.3       1 <0>         0.1631
     16 C12         7.0797    0.0028    0.3622 C.2       1 <0>         0.4521
     17 O3          6.1095    0.1447   -0.3438 O.2       1 <0>        -0.4881
     18 O4          8.1975    0.7039    0.1156 O.3       1 <0>        -0.3481
     19 C13         8.1693    1.5994   -0.9977 C.3       1 <0>         0.0643
     20 C14         9.5219    2.3040   -1.1199 C.3       1 <0>        -0.1129
     21 C15         9.4917    3.2627   -2.3119 C.3       1 <0>        -0.0745
     22 C16        10.8240    3.9567   -2.4322 C.ar      1 <0>        -0.1341
     23 C17        11.0549    5.1528   -1.7695 C.ar      1 <0>        -0.0721
     24 C18        12.2955    5.7556   -1.9092 C.ar      1 <0>        -0.1696
     25 C19        13.2541    5.1487   -2.6987 C.ar      1 <0>         0.0943
     26 N2         12.9991    4.0111   -3.3147 N.ar      1 <0>        -0.4834
     27 C20        11.8327    3.4064   -3.1997 C.ar      1 <0>         0.1024
     28 H1          1.9366    3.7389    6.7939 H         1 <0>         0.1293
     29 H2          0.9672    1.5245    6.3247 H         1 <0>         0.1311
     30 H3          2.3289   -0.2079    5.2259 H         1 <0>         0.1306
     31 H4          5.6319    2.4859    5.0721 H         1 <0>         0.1303
     32 H5          4.2705    4.2179    6.1722 H         1 <0>         0.1307
     33 H6          5.9456    0.1116    4.6750 H         1 <0>         0.1423
     34 H7          4.5673   -1.0128    4.7396 H         1 <0>         0.1422
     35 H8          4.6057   -2.8289    2.6504 H         1 <0>         0.0839
     36 H9          4.7207   -2.6459    0.8732 H         1 <0>         0.0803
     37 H10         6.9168   -3.4891    2.8428 H         1 <0>         0.0848
     38 H11         6.4531   -4.2604    1.2889 H         1 <0>         0.0938
     39 H12         8.5514   -2.5237    1.3572 H         1 <0>         0.1009
     40 H13         7.3952   -2.4674   -0.0136 H         1 <0>         0.0844
     41 H14         7.6675   -0.5999    2.3304 H         1 <0>         0.1132
     42 H15         7.9682    1.0382   -1.9103 H         1 <0>         0.0699
     43 H16         7.3853    2.3415   -0.8473 H         1 <0>         0.0728
     44 H17         9.7230    2.8651   -0.2073 H         1 <0>         0.0772
     45 H18        10.3059    1.5618   -1.2703 H         1 <0>         0.0778
     46 H19         9.2906    2.7016   -3.2245 H         1 <0>         0.0817
     47 H20         8.7077    4.0048   -2.1615 H         1 <0>         0.0805
     48 H21        10.2865    5.6041   -1.1594 H         1 <0>         0.1348
     49 H22        12.5100    6.6877   -1.4077 H         1 <0>         0.1361
     50 H23        14.2231    5.6119   -2.8127 H         1 <0>         0.1561
     51 H24        11.6624    2.4727   -3.7150 H         1 <0>         0.1548
@<TRIPOS>BOND
     1    1    6 ar
     2    1    2 ar
     3    1   28 1
     4    2    3 ar
     5    2   29 1
     6    3    4 ar
     7    3   30 1
     8    4    5 ar
     9    4    7 1
    10    5    6 ar
    11    5   31 1
    12    6   32 1
    13    7    8 1
    14    7   33 1
    15    7   34 1
    16    8    9 2
    17    8   10 2
    18    8   11 1
    19   11   15 1
    20   11   12 1
    21   12   13 1
    22   12   35 1
    23   12   36 1
    24   13   14 1
    25   13   37 1
    26   13   38 1
    27   14   15 1
    28   14   39 1
    29   14   40 1
    30   15   16 1
    31   15   41 1
    32   16   17 2
    33   16   18 1
    34   18   19 1
    35   19   20 1
    36   19   42 1
    37   19   43 1
    38   20   21 1
    39   20   44 1
    40   20   45 1
    41   21   22 1
    42   21   46 1
    43   21   47 1
    44   22   27 ar
    45   22   23 ar
    46   23   24 ar
    47   23   48 1
    48   24   25 ar
    49   24   49 1
    50   25   26 ar
    51   25   50 1
    52   26   27 ar
    53   27   51 1
@<TRIPOS>MOLECULE
CHEMBL148494
   58    60     0     0     0
SMALL
USER_CHARGES

@<TRIPOS>ATOM
      1 C1          0.2594    2.5459    1.2790 C.ar      1 <0>        -0.1251
      2 C2          1.2425    3.1113    2.0695 C.ar      1 <0>        -0.1180
      3 C3          2.5305    2.6109    2.0343 C.ar      1 <0>        -0.1178
      4 C4          2.8355    1.5447    1.2090 C.ar      1 <0>        -0.0831
      5 C5          1.8523    0.9787    0.4192 C.ar      1 <0>        -0.1183
      6 C6          0.5645    1.4801    0.4533 C.ar      1 <0>        -0.1185
      7 C7          4.2400    0.9997    1.1698 C.3       1 <0>        -0.0798
      8 C8          4.3890   -0.1020    2.2210 C.3       1 <0>        -0.1105
      9 C9          5.8149   -0.6552    2.1813 C.3       1 <0>        -0.1200
     10 C10         5.9640   -1.7569    3.2324 C.3       1 <0>         0.0671
     11 O1          7.2957   -2.2737    3.1953 O.3       1 <0>        -0.3315
     12 C11         7.5932   -3.2546    4.0620 C.2       1 <0>         0.4757
     13 O2          6.7507   -3.6610    4.8268 O.2       1 <0>        -0.5161
     14 C12         8.9779   -3.8489    4.0812 C.3       1 <0>         0.1642
     15 C13         8.9169   -5.3079    3.6181 C.3       1 <0>        -0.1264
     16 C14        10.2995   -5.9459    3.7718 C.3       1 <0>        -0.1156
     17 C15        10.7125   -5.9237    5.2452 C.3       1 <0>        -0.1407
     18 C16        10.7938   -4.4717    5.7268 C.3       1 <0>         0.1186
     19 N1          9.5122   -3.8090    5.4492 N.pl3     1 <0>        -0.9920
     20 S1          8.6856   -3.0317    6.6555 S.o2      1 <0>         2.6023
     21 O3          9.6732   -2.7177    7.6277 O.2       1 <0>        -0.9483
     22 O4          7.9654   -2.0000    5.9950 O.2       1 <0>        -0.9448
     23 C17         7.5377   -4.2746    7.3098 C.3       1 <0>        -0.5779
     24 C18         6.7251   -3.6699    8.4256 C.ar      1 <0>        -0.0917
     25 C19         7.1831   -3.7356    9.7282 C.ar      1 <0>        -0.1081
     26 C20         6.4377   -3.1809   10.7517 C.ar      1 <0>        -0.1190
     27 C21         5.2345   -2.5602   10.4725 C.ar      1 <0>        -0.1103
     28 C22         4.7769   -2.4937    9.1698 C.ar      1 <0>        -0.1197
     29 C23         5.5244   -3.0446    8.1457 C.ar      1 <0>        -0.0980
     30 H1         -0.7480    2.9340    1.3099 H         1 <0>         0.1209
     31 H2          1.0042    3.9443    2.7143 H         1 <0>         0.1216
     32 H3          3.2987    3.0531    2.6513 H         1 <0>         0.1214
     33 H4          2.0906    0.1460   -0.2259 H         1 <0>         0.1209
     34 H5         -0.2036    1.0381   -0.1640 H         1 <0>         0.1214
     35 H6          4.4427    0.5883    0.1810 H         1 <0>         0.0745
     36 H7          4.9470    1.8019    1.3815 H         1 <0>         0.0751
     37 H8          4.1863    0.3095    3.2098 H         1 <0>         0.0690
     38 H9          3.6820   -0.9041    2.0093 H         1 <0>         0.0676
     39 H10         6.0176   -1.0667    1.1925 H         1 <0>         0.0747
     40 H11         6.5219    0.1469    2.3929 H         1 <0>         0.0773
     41 H12         5.7613   -1.3455    4.2212 H         1 <0>         0.0790
     42 H13         5.2570   -2.5591    3.0208 H         1 <0>         0.0677
     43 H14         9.6290   -3.2797    3.4178 H         1 <0>         0.1147
     44 H15         8.1951   -5.8529    4.2264 H         1 <0>         0.0812
     45 H16         8.6134   -5.3452    2.5719 H         1 <0>         0.0863
     46 H17        10.2648   -6.9769    3.4199 H         1 <0>         0.0765
     47 H18        11.0255   -5.3856    3.1827 H         1 <0>         0.0722
     48 H19         9.9738   -6.4628    5.8383 H         1 <0>         0.0703
     49 H20        11.6869   -6.3992    5.3572 H         1 <0>         0.0841
     50 H21        10.9904   -4.4527    6.7987 H         1 <0>         0.0991
     51 H22        11.5944   -3.9553    5.1971 H         1 <0>         0.0820
     52 H23         6.8712   -4.6081    6.5143 H         1 <0>         0.1675
     53 H24         8.1022   -5.1254    7.6913 H         1 <0>         0.1326
     54 H25         8.1231   -4.2206    9.9463 H         1 <0>         0.1282
     55 H26         6.7951   -3.2328   11.7695 H         1 <0>         0.1291
     56 H27         4.6518   -2.1274   11.2723 H         1 <0>         0.1274
     57 H28         3.8368   -2.0090    8.9517 H         1 <0>         0.1283
     58 H29         5.1687   -2.9894    7.1275 H         1 <0>         0.1327
@<TRIPOS>BOND
     1    1    6 ar
     2    1    2 ar
     3    1   30 1
     4    2    3 ar
     5    2   31 1
     6    3    4 ar
     7    3   32 1
     8    4    5 ar
     9    4    7 1
    10    5    6 ar
    11    5   33 1
    12    6   34 1
    13    7    8 1
    14    7   35 1
    15    7   36 1
    16    8    9 1
    17    8   37 1
    18    8   38 1
    19    9   10 1
    20    9   39 1
    21    9   40 1
    22   10   11 1
    23   10   41 1
    24   10   42 1
    25   11   12 1
    26   12   13 2
    27   12   14 1
    28   14   19 1
    29   14   15 1
    30   14   43 1
    31   15   16 1
    32   15   44 1
    33   15   45 1
    34   16   17 1
    35   16   46 1
    36   16   47 1
    37   17   18 1
    38   17   48 1
    39   17   49 1
    40   18   19 1
    41   18   50 1
    42   18   51 1
    43   19   20 1
    44   20   21 2
    45   20   22 2
    46   20   23 1
    47   23   24 1
    48   23   52 1
    49   23   53 1
    50   24   29 ar
    51   24   25 ar
    52   25   26 ar
    53   25   54 1
    54   26   27 ar
    55   26   55 1
    56   27   28 ar
    57   27   56 1
    58   28   29 ar
    59   28   57 1
    60   29   58 1
@<TRIPOS>MOLECULE
CHEMBL148494__1
   58    60     0     0     0
SMALL
USER_CHARGES

@<TRIPOS>ATOM
      1 C1         -1.6739   -1.6405    1.7692 C.ar      1 <0>        -0.1251
      2 C2         -0.7545   -1.4644    0.7521 C.ar      1 <0>        -0.1185
      3 C3          0.4408   -2.1585    0.7730 C.ar      1 <0>        -0.1182
      4 C4          0.7167   -3.0285    1.8112 C.ar      1 <0>        -0.0831
      5 C5         -0.2024   -3.2040    2.8287 C.ar      1 <0>        -0.1178
      6 C6         -1.3982   -2.5109    2.8071 C.ar      1 <0>        -0.1180
      7 C7          2.0193   -3.7861    1.8334 C.3       1 <0>        -0.0798
      8 C8          3.0734   -2.9661    2.5799 C.3       1 <0>        -0.1106
      9 C9          4.3959   -3.7351    2.6025 C.3       1 <0>        -0.1200
     10 C10         5.4501   -2.9151    3.3490 C.3       1 <0>         0.0671
     11 O1          6.6852   -3.6334    3.3701 O.3       1 <0>        -0.3315
     12 C11         7.7205   -3.0473    3.9918 C.2       1 <0>         0.4757
     13 O2          7.5825   -1.9604    4.5012 O.2       1 <0>        -0.5161
     14 C12         9.0548   -3.7450    4.0544 C.3       1 <0>         0.1641
     15 C13        10.0834   -2.9606    3.2338 C.3       1 <0>        -0.1264
     16 C14        11.4645   -3.5948    3.4139 C.3       1 <0>        -0.1156
     17 C15        11.8702   -3.5278    4.8880 C.3       1 <0>        -0.1407
     18 C16        10.8618   -4.3185    5.7274 C.3       1 <0>         0.1186
     19 N1          9.5122   -3.8090    5.4492 N.pl3     1 <0>        -0.9920
     20 S1          8.5252   -3.3161    6.6843 S.o2      1 <0>         2.6023
     21 O3          7.2064   -3.5518    6.2106 O.2       1 <0>        -0.9448
     22 O4          9.0147   -3.9951    7.8326 O.2       1 <0>        -0.9483
     23 C17         8.8247   -1.5336    6.8374 C.3       1 <0>        -0.5778
     24 C18         7.9691   -0.9736    7.9443 C.ar      1 <0>        -0.0917
     25 C19         6.6978   -0.5072    7.6666 C.ar      1 <0>        -0.0981
     26 C20         5.9129    0.0064    8.6820 C.ar      1 <0>        -0.1197
     27 C21         6.3991    0.0531    9.9752 C.ar      1 <0>        -0.1103
     28 C22         7.6700   -0.4142   10.2531 C.ar      1 <0>        -0.1190
     29 C23         8.4533   -0.9317    9.2384 C.ar      1 <0>        -0.1080
     30 H1         -2.6058   -1.0948    1.7552 H         1 <0>         0.1209
     31 H2         -0.9701   -0.7846   -0.0590 H         1 <0>         0.1214
     32 H3          1.1588   -2.0214   -0.0220 H         1 <0>         0.1209
     33 H4          0.0131   -3.8840    3.6396 H         1 <0>         0.1214
     34 H5         -2.1164   -2.6483    3.6019 H         1 <0>         0.1216
     35 H6          1.8759   -4.7406    2.3398 H         1 <0>         0.0751
     36 H7          2.3539   -3.9636    0.8113 H         1 <0>         0.0745
     37 H8          3.2169   -2.0115    2.0736 H         1 <0>         0.0676
     38 H9          2.7389   -2.7885    3.6020 H         1 <0>         0.0690
     39 H10         4.2525   -4.6897    3.1089 H         1 <0>         0.0773
     40 H11         4.7305   -3.9127    1.5804 H         1 <0>         0.0747
     41 H12         5.5935   -1.9606    2.8427 H         1 <0>         0.0676
     42 H13         5.1155   -2.7376    4.3711 H         1 <0>         0.0790
     43 H14         8.9584   -4.7545    3.6548 H         1 <0>         0.1147
     44 H15         9.8053   -2.9877    2.1802 H         1 <0>         0.0863
     45 H16        10.1104   -1.9264    3.5769 H         1 <0>         0.0813
     46 H17        11.4305   -4.6361    3.0936 H         1 <0>         0.0722
     47 H18        12.1941   -3.0535    2.8115 H         1 <0>         0.0765
     48 H19        12.8638   -3.9585    5.0119 H         1 <0>         0.0841
     49 H20        11.8804   -2.4882    5.2156 H         1 <0>         0.0703
     50 H21        10.9153   -5.3747    5.4635 H         1 <0>         0.0820
     51 H22        11.0890   -4.1924    6.7860 H         1 <0>         0.0990
     52 H23         9.8760   -1.3603    7.0677 H         1 <0>         0.1326
     53 H24         8.5725   -1.0408    5.8984 H         1 <0>         0.1673
     54 H25         6.3179   -0.5436    6.6563 H         1 <0>         0.1327
     55 H26         4.9199    0.3716    8.4649 H         1 <0>         0.1284
     56 H27         5.7861    0.4551   10.7684 H         1 <0>         0.1274
     57 H28         8.0500   -0.3774   11.2633 H         1 <0>         0.1291
     58 H29         9.4449   -1.3003    9.4561 H         1 <0>         0.1282
@<TRIPOS>BOND
     1    1    6 ar
     2    1    2 ar
     3    1   30 1
     4    2    3 ar
     5    2   31 1
     6    3    4 ar
     7    3   32 1
     8    4    5 ar
     9    4    7 1
    10    5    6 ar
    11    5   33 1
    12    6   34 1
    13    7    8 1
    14    7   35 1
    15    7   36 1
    16    8    9 1
    17    8   37 1
    18    8   38 1
    19    9   10 1
    20    9   39 1
    21    9   40 1
    22   10   11 1
    23   10   41 1
    24   10   42 1
    25   11   12 1
    26   12   13 2
    27   12   14 1
    28   14   19 1
    29   14   15 1
    30   14   43 1
    31   15   16 1
    32   15   44 1
    33   15   45 1
    34   16   17 1
    35   16   46 1
    36   16   47 1
    37   17   18 1
    38   17   48 1
    39   17   49 1
    40   18   19 1
    41   18   50 1
    42   18   51 1
    43   19   20 1
    44   20   21 2
    45   20   22 2
    46   20   23 1
    47   23   24 1
    48   23   52 1
    49   23   53 1
    50   24   29 ar
    51   24   25 ar
    52   25   26 ar
    53   25   54 1
    54   26   27 ar
    55   26   55 1
    56   27   28 ar
    57   27   56 1
    58   28   29 ar
    59   28   57 1
    60   29   58 1
@<TRIPOS>MOLECULE
CHEMBL284069
   67    71     0     0     0
SMALL
USER_CHARGES

@<TRIPOS>ATOM
      1 C1         -0.0167    1.3781    0.0096 C.ar      1 <0>        -0.1250
      2 C2          1.1709    2.0855    0.0021 C.ar      1 <0>        -0.1180
      3 C3          2.3773    1.4107   -0.0130 C.ar      1 <0>        -0.1179
      4 C4          2.3960    0.0285   -0.0201 C.ar      1 <0>        -0.0835
      5 C5          1.2084   -0.6789   -0.0117 C.ar      1 <0>        -0.1182
      6 C6          0.0021   -0.0041    0.0020 C.ar      1 <0>        -0.1183
      7 C7          3.7112   -0.7071   -0.0376 C.3       1 <0>        -0.0792
      8 C8          4.1714   -0.9633    1.3989 C.3       1 <0>        -0.1114
      9 C9          5.5066   -1.7102    1.3812 C.3       1 <0>        -0.1176
     10 C10         5.9667   -1.9663    2.8177 C.3       1 <0>         0.0668
     11 O1          7.2138   -2.6639    2.8011 O.3       1 <0>        -0.3532
     12 C11         7.7581   -2.9673    3.9900 C.2       1 <0>         0.4499
     13 O2          7.1945   -2.6512    5.0109 O.2       1 <0>        -0.4824
     14 C12         9.0723   -3.7024    4.0514 C.3       1 <0>         0.1689
     15 H1          9.8441   -3.1246    3.5429 H         1 <0>         0.1139
     16 C13         8.9303   -5.0879    3.3867 C.3       1 <0>        -0.1185
     17 C14         9.7905   -6.0011    4.2996 C.3       1 <0>        -0.1305
     18 C15         9.5301   -5.3802    5.6947 C.3       1 <0>         0.0967
     19 N1          9.4559   -3.9245    5.4532 N.am      1 <0>        -0.6247
     20 C16         9.6987   -2.9605    6.3633 C.2       1 <0>         0.7336
     21 O3          9.6062   -1.7898    6.0483 O.2       1 <0>        -0.5687
     22 N2         10.0441   -3.2942    7.6226 N.am      1 <0>        -0.7365
     23 C17        10.3080   -2.2464    8.6119 C.3       1 <0>         0.2034
     24 C18        11.4667   -1.3707    8.1305 C.3       1 <0>        -0.1216
     25 C19        11.7423   -0.2764    9.1637 C.3       1 <0>        -0.0823
     26 C20        12.1110   -0.9198   10.5020 C.3       1 <0>        -0.1109
     27 C21        10.9524   -1.7954   10.9833 C.3       1 <0>        -0.0796
     28 C22        10.6767   -2.8897    9.9502 C.3       1 <0>        -0.1140
     29 C23         9.7006   -0.9334   11.1595 C.3       1 <0>        -0.1113
     30 C24         9.3319   -0.2901    9.8212 C.3       1 <0>        -0.0827
     31 C25        10.4906    0.5856    9.3399 C.3       1 <0>        -0.1088
     32 C26         9.0563   -1.3844    8.7880 C.3       1 <0>        -0.1211
     33 H2         -0.9591    1.9053    0.0259 H         1 <0>         0.1211
     34 H3          1.1563    3.1654    0.0076 H         1 <0>         0.1217
     35 H4          3.3051    1.9634   -0.0196 H         1 <0>         0.1212
     36 H5          1.2231   -1.7588   -0.0176 H         1 <0>         0.1209
     37 H6         -0.9258   -0.5567    0.0082 H         1 <0>         0.1216
     38 H7          3.5884   -1.6586   -0.5549 H         1 <0>         0.0746
     39 H8          4.4573   -0.1052   -0.5563 H         1 <0>         0.0749
     40 H9          4.2941   -0.0118    1.9163 H         1 <0>         0.0680
     41 H10         3.4252   -1.5652    1.9176 H         1 <0>         0.0675
     42 H11         5.3838   -2.6617    0.8639 H         1 <0>         0.0756
     43 H12         6.2527   -1.1082    0.8625 H         1 <0>         0.0761
     44 H13         6.0895   -1.0148    3.3350 H         1 <0>         0.0672
     45 H14         5.2206   -2.5682    3.3364 H         1 <0>         0.0655
     46 H15         7.8895   -5.4115    3.3883 H         1 <0>         0.0831
     47 H16         9.3287   -5.0715    2.3722 H         1 <0>         0.1013
     48 H17         9.4417   -7.0330    4.2600 H         1 <0>         0.0927
     49 H18        10.8457   -5.9365    4.0340 H         1 <0>         0.0846
     50 H19         8.5883   -5.7466    6.1032 H         1 <0>         0.0709
     51 H20        10.3530   -5.6096    6.3717 H         1 <0>         0.0799
     52 H21        10.1180   -4.2282    7.8739 H         1 <0>         0.3928
     53 H22        12.3584   -1.9848    8.0050 H         1 <0>         0.0575
     54 H23        11.2040   -0.9124    7.1771 H         1 <0>         0.0865
     55 H24        12.5678    0.3474    8.8208 H         1 <0>         0.0716
     56 H25        13.0028   -1.5339   10.3765 H         1 <0>         0.0621
     57 H26        12.3074   -0.1402   11.2381 H         1 <0>         0.0647
     58 H27        11.2150   -2.2538   11.9368 H         1 <0>         0.0749
     59 H28         9.8513   -3.5136   10.2931 H         1 <0>         0.0676
     60 H29        11.5685   -3.5038    9.8247 H         1 <0>         0.0676
     61 H30         8.8752   -1.5573   11.5024 H         1 <0>         0.0619
     62 H31         9.8970   -0.1538   11.8956 H         1 <0>         0.0646
     63 H32         8.4402    0.3240    9.9467 H         1 <0>         0.0711
     64 H33        10.6869    1.3652   10.0759 H         1 <0>         0.0620
     65 H34        10.2279    1.0439    8.3864 H         1 <0>         0.0643
     66 H35         8.7936   -0.9261    7.8346 H         1 <0>         0.0879
     67 H36         8.2309   -2.0082    9.1309 H         1 <0>         0.0571
@<TRIPOS>BOND
     1    1    6 ar
     2    1    2 ar
     3    1   33 1
     4    2    3 ar
     5    2   34 1
     6    3    4 ar
     7    3   35 1
     8    4    5 ar
     9    4    7 1
    10    5    6 ar
    11    5   36 1
    12    6   37 1
    13    7    8 1
    14    7   38 1
    15    7   39 1
    16    8    9 1
    17    8   40 1
    18    8   41 1
    19    9   10 1
    20    9   42 1
    21    9   43 1
    22   10   11 1
    23   10   44 1
    24   10   45 1
    25   11   12 1
    26   12   13 2
    27   12   14 1
    28   14   15 1
    29   14   19 1
    30   14   16 1
    31   16   17 1
    32   16   46 1
    33   16   47 1
    34   17   18 1
    35   17   48 1
    36   17   49 1
    37   18   19 1
    38   18   50 1
    39   18   51 1
    40   19   20 am
    41   20   21 2
    42   20   22 am
    43   22   23 1
    44   22   52 1
    45   23   28 1
    46   23   32 1
    47   23   24 1
    48   24   25 1
    49   24   53 1
    50   24   54 1
    51   25   31 1
    52   25   26 1
    53   25   55 1
    54   26   27 1
    55   26   56 1
    56   26   57 1
    57   27   28 1
    58   27   29 1
    59   27   58 1
    60   28   59 1
    61   28   60 1
    62   29   30 1
    63   29   61 1
    64   29   62 1
    65   30   31 1
    66   30   32 1
    67   30   63 1
    68   31   64 1
    69   31   65 1
    70   32   66 1
    71   32   67 1
@<TRIPOS>MOLECULE
CHEMBL433871
   56    59     0     0     0
SMALL
USER_CHARGES

@<TRIPOS>ATOM
      1 C1         -0.0167    1.3781    0.0096 C.ar      1 <0>        -0.1226
      2 C2          1.1709    2.0855    0.0021 C.ar      1 <0>        -0.1180
      3 C3          2.3773    1.4107   -0.0130 C.ar      1 <0>        -0.1164
      4 C4          2.3960    0.0285   -0.0201 C.ar      1 <0>        -0.0849
      5 C5          1.2084   -0.6789   -0.0117 C.ar      1 <0>        -0.1161
      6 C6          0.0021   -0.0041    0.0020 C.ar      1 <0>        -0.1176
      7 C7          3.7112   -0.7071   -0.0376 C.3       1 <0>        -0.0747
      8 C8          4.1714   -0.9633    1.3989 C.3       1 <0>        -0.0991
      9 C9          5.5066   -1.7102    1.3812 C.3       1 <0>        -0.1042
     10 S1          6.0522   -2.0139    3.0843 S.3       1 <0>        -0.0716
     11 C10         7.4925   -2.8197    2.9069 C.2       1 <0>         0.2862
     12 O1          7.9205   -3.0601    1.7974 O.2       1 <0>        -0.4593
     13 C11         8.2686   -3.2527    4.1240 C.3       1 <0>         0.1316
     14 H1          7.5911   -3.6372    4.8865 H         1 <0>         0.1169
     15 C12         9.0982   -2.0584    4.6899 C.3       1 <0>        -0.0901
     16 C13         9.8151   -1.4701    3.4346 C.3       1 <0>        -0.1268
     17 C14        10.8095   -2.5775    3.0140 C.3       1 <0>        -0.1402
     18 C15        10.6064   -3.7058    4.0707 C.3       1 <0>         0.1341
     19 C16        10.2814   -2.8555    5.3487 C.3       1 <0>        -0.1266
     20 N1          9.2644   -4.2814    3.7576 N.pl3     1 <0>        -0.9948
     21 S2          8.9515   -5.7788    3.1234 S.o2      1 <0>         2.6157
     22 O2         10.0615   -6.5763    3.5121 O.2       1 <0>        -0.9447
     23 O3          7.6403   -6.0952    3.5704 O.2       1 <0>        -0.9476
     24 C17         8.9568   -5.5341    1.3260 C.3       1 <0>        -0.5794
     25 C18         8.6794   -6.8468    0.6395 C.ar      1 <0>        -0.0942
     26 C19         9.7257   -7.6846    0.3015 C.ar      1 <0>        -0.1061
     27 C20         9.4713   -8.8886   -0.3281 C.ar      1 <0>        -0.1166
     28 C21         8.1705   -9.2550   -0.6193 C.ar      1 <0>        -0.1101
     29 C22         7.1242   -8.4176   -0.2805 C.ar      1 <0>        -0.1167
     30 C23         7.3783   -7.2155    0.3530 C.ar      1 <0>        -0.1047
     31 H2         -0.9591    1.9053    0.0259 H         1 <0>         0.1217
     32 H3          1.1563    3.1654    0.0076 H         1 <0>         0.1223
     33 H4          3.3051    1.9634   -0.0196 H         1 <0>         0.1214
     34 H5          1.2231   -1.7588   -0.0176 H         1 <0>         0.1217
     35 H6         -0.9258   -0.5567    0.0082 H         1 <0>         0.1224
     36 H7          3.5884   -1.6586   -0.5549 H         1 <0>         0.0766
     37 H8          4.4573   -0.1052   -0.5563 H         1 <0>         0.0765
     38 H9          4.2941   -0.0118    1.9163 H         1 <0>         0.0791
     39 H10         3.4252   -1.5652    1.9176 H         1 <0>         0.0794
     40 H11         5.3838   -2.6617    0.8639 H         1 <0>         0.0976
     41 H12         6.2527   -1.1082    0.8625 H         1 <0>         0.0983
     42 H13         8.5637   -1.3561    5.3297 H         1 <0>         0.1297
     43 H14         9.0957   -1.2805    2.6380 H         1 <0>         0.0670
     44 H15        10.3491   -0.5558    3.6935 H         1 <0>         0.0774
     45 H16        10.5710   -2.9439    2.0155 H         1 <0>         0.0742
     46 H17        11.8327   -2.2033    3.0487 H         1 <0>         0.0797
     47 H18        11.4261   -4.4179    4.1663 H         1 <0>         0.1326
     48 H19        11.1089   -2.2050    5.6319 H         1 <0>         0.0954
     49 H20         9.9477   -3.4746    6.1814 H         1 <0>         0.0853
     50 H21         8.1860   -4.8125    1.0552 H         1 <0>         0.1575
     51 H22         9.9314   -5.1594    1.0132 H         1 <0>         0.1379
     52 H23        10.7419   -7.3983    0.5290 H         1 <0>         0.1293
     53 H24        10.2887   -9.5429   -0.5929 H         1 <0>         0.1302
     54 H25         7.9718  -10.1954   -1.1119 H         1 <0>         0.1287
     55 H26         6.1080   -8.7037   -0.5083 H         1 <0>         0.1297
     56 H27         6.5606   -6.5629    0.6211 H         1 <0>         0.1266
@<TRIPOS>BOND
     1    1    6 ar
     2    1    2 ar
     3    1   31 1
     4    2    3 ar
     5    2   32 1
     6    3    4 ar
     7    3   33 1
     8    4    5 ar
     9    4    7 1
    10    5    6 ar
    11    5   34 1
    12    6   35 1
    13    7    8 1
    14    7   36 1
    15    7   37 1
    16    8    9 1
    17    8   38 1
    18    8   39 1
    19    9   10 1
    20    9   40 1
    21    9   41 1
    22   10   11 1
    23   11   12 2
    24   11   13 1
    25   13   14 1
    26   13   20 1
    27   13   15 1
    28   15   19 1
    29   15   16 1
    30   15   42 1
    31   16   17 1
    32   16   43 1
    33   16   44 1
    34   17   18 1
    35   17   45 1
    36   17   46 1
    37   18   19 1
    38   18   20 1
    39   18   47 1
    40   19   48 1
    41   19   49 1
    42   20   21 1
    43   21   22 2
    44   21   23 2
    45   21   24 1
    46   24   25 1
    47   24   50 1
    48   24   51 1
    49   25   30 ar
    50   25   26 ar
    51   26   27 ar
    52   26   52 1
    53   27   28 ar
    54   27   53 1
    55   28   29 ar
    56   28   54 1
    57   29   30 ar
    58   29   55 1
    59   30   56 1
@<TRIPOS>MOLECULE
CHEMBL433871__1
   56    59     0     0     0
SMALL
USER_CHARGES

@<TRIPOS>ATOM
      1 C1          0.7701    0.8133   -2.2371 C.ar      1 <0>        -0.1236
      2 C2          1.8842    1.5942   -1.9926 C.ar      1 <0>        -0.1182
      3 C3          3.0970    0.9970   -1.7040 C.ar      1 <0>        -0.1165
      4 C4          3.1956   -0.3811   -1.6594 C.ar      1 <0>        -0.0832
      5 C5          2.0812   -1.1620   -1.9030 C.ar      1 <0>        -0.1163
      6 C6          0.8688   -0.5648   -2.1930 C.ar      1 <0>        -0.1179
      7 C7          4.5180   -1.0322   -1.3458 C.3       1 <0>        -0.0761
      8 C8          4.6431   -1.2301    0.1662 C.3       1 <0>        -0.0975
      9 C9          5.9857   -1.8912    0.4846 C.3       1 <0>        -0.0985
     10 S1          6.1341   -2.1258    2.2772 S.3       1 <0>        -0.0983
     11 C10         7.6195   -2.8422    2.4669 C.2       1 <0>         0.2950
     12 O1          8.3082   -3.0770    1.4960 O.2       1 <0>        -0.4393
     13 C11         8.1126   -3.2009    3.8450 C.3       1 <0>         0.1365
     14 H1          7.2728   -3.4540    4.4922 H         1 <0>         0.1077
     15 C12         8.9270   -2.0171    4.4535 C.3       1 <0>        -0.0916
     16 C13         9.1458   -2.4362    5.9409 C.3       1 <0>        -0.1172
     17 C14        10.0871   -3.6604    5.8538 C.3       1 <0>        -0.1425
     18 C15        10.3565   -3.8372    4.3282 C.3       1 <0>         0.1352
     19 C16        10.3423   -2.3421    3.8528 C.3       1 <0>        -0.1332
     20 N1          9.0618   -4.3312    3.7715 N.pl3     1 <0>        -0.9961
     21 S2          8.7494   -5.8481    3.1853 S.o2      1 <0>         2.6160
     22 O2          7.5991   -5.6905    2.3660 O.2       1 <0>        -0.9388
     23 O3          9.9821   -6.2822    2.6274 O.2       1 <0>        -0.9386
     24 C17         8.3427   -6.8391    4.6492 C.3       1 <0>        -0.5841
     25 C18         8.0515   -8.2573    4.2308 C.ar      1 <0>        -0.0972
     26 C19         6.7620   -8.6292    3.8996 C.ar      1 <0>        -0.1044
     27 C20         6.4948   -9.9301    3.5158 C.ar      1 <0>        -0.1166
     28 C21         7.5173  -10.8589    3.4627 C.ar      1 <0>        -0.1082
     29 C22         8.8070  -10.4867    3.7930 C.ar      1 <0>        -0.1166
     30 C23         9.0749   -9.1848    4.1727 C.ar      1 <0>        -0.1047
     31 H2         -0.1785    1.2800   -2.4582 H         1 <0>         0.1213
     32 H3          1.8072    2.6709   -2.0275 H         1 <0>         0.1220
     33 H4          3.9677    1.6071   -1.5138 H         1 <0>         0.1215
     34 H5          2.1583   -2.2387   -1.8685 H         1 <0>         0.1219
     35 H6         -0.0018   -1.1749   -2.3837 H         1 <0>         0.1221
     36 H7          4.5741   -1.9997   -1.8447 H         1 <0>         0.0772
     37 H8          5.3293   -0.3947   -1.6972 H         1 <0>         0.0767
     38 H9          4.5871   -0.2626    0.6651 H         1 <0>         0.0778
     39 H10         3.8319   -1.8677    0.5175 H         1 <0>         0.0783
     40 H11         6.0418   -2.8586   -0.0143 H         1 <0>         0.0986
     41 H12         6.7970   -1.2536    0.1333 H         1 <0>         0.0959
     42 H13         8.5359   -1.0157    4.2734 H         1 <0>         0.1247
     43 H14         9.6201   -1.6290    6.4991 H         1 <0>         0.0793
     44 H15         8.1985   -2.7152    6.4022 H         1 <0>         0.0733
     45 H16        11.0185   -3.4627    6.3843 H         1 <0>         0.0828
     46 H17         9.5978   -4.5461    6.2590 H         1 <0>         0.0706
     47 H18        11.2447   -4.4130    4.0681 H         1 <0>         0.1302
     48 H19        10.3583   -2.2552    2.7664 H         1 <0>         0.0846
     49 H20        11.1326   -1.7540    4.3193 H         1 <0>         0.0936
     50 H21         9.1860   -6.8300    5.3398 H         1 <0>         0.1407
     51 H22         7.4658   -6.4180    5.1409 H         1 <0>         0.1409
     52 H23         5.9632   -7.9036    3.9411 H         1 <0>         0.1302
     53 H24         5.4872  -10.2208    3.2578 H         1 <0>         0.1308
     54 H25         7.3085  -11.8754    3.1635 H         1 <0>         0.1292
     55 H26         9.6058  -11.2124    3.7518 H         1 <0>         0.1308
     56 H27        10.0831   -8.8931    4.4271 H         1 <0>         0.1299
@<TRIPOS>BOND
     1    1    6 ar
     2    1    2 ar
     3    1   31 1
     4    2    3 ar
     5    2   32 1
     6    3    4 ar
     7    3   33 1
     8    4    5 ar
     9    4    7 1
    10    5    6 ar
    11    5   34 1
    12    6   35 1
    13    7    8 1
    14    7   36 1
    15    7   37 1
    16    8    9 1
    17    8   38 1
    18    8   39 1
    19    9   10 1
    20    9   40 1
    21    9   41 1
    22   10   11 1
    23   11   12 2
    24   11   13 1
    25   13   14 1
    26   13   20 1
    27   13   15 1
    28   15   19 1
    29   15   16 1
    30   15   42 1
    31   16   17 1
    32   16   43 1
    33   16   44 1
    34   17   18 1
    35   17   45 1
    36   17   46 1
    37   18   19 1
    38   18   20 1
    39   18   47 1
    40   19   48 1
    41   19   49 1
    42   20   21 1
    43   21   22 2
    44   21   23 2
    45   21   24 1
    46   24   25 1
    47   24   50 1
    48   24   51 1
    49   25   30 ar
    50   25   26 ar
    51   26   27 ar
    52   26   52 1
    53   27   28 ar
    54   27   53 1
    55   28   29 ar
    56   28   54 1
    57   29   30 ar
    58   29   55 1
    59   30   56 1
@<TRIPOS>MOLECULE
CHEMBL440799
   75    79     0     0     0
SMALL
USER_CHARGES

@<TRIPOS>ATOM
      1 C1         -1.5032   -6.6889    0.1899 C.3       1 <0>         0.0261
      2 O1         -1.1710   -7.4136   -0.9961 O.3       1 <0>        -0.3075
      3 C2         -0.3708   -6.7863   -1.8992 C.ar      1 <0>         0.0957
      4 C3          0.0892   -5.5039   -1.6464 C.ar      1 <0>        -0.1699
      5 C4          0.9030   -4.8678   -2.5653 C.ar      1 <0>        -0.1118
      6 C5          1.2594   -5.5082   -3.7376 C.ar      1 <0>        -0.0778
      7 C6          0.8036   -6.7874   -3.9961 C.ar      1 <0>        -0.1677
      8 C7         -0.0074   -7.4330   -3.0765 C.ar      1 <0>         0.1015
      9 O2         -0.4517   -8.6938   -3.3266 O.3       1 <0>        -0.3067
     10 C8         -0.0386   -9.2955   -4.5551 C.3       1 <0>         0.0258
     11 C9          2.1463   -4.8100   -4.7360 C.3       1 <0>        -0.0734
     12 C10         3.6112   -5.1200   -4.4213 C.3       1 <0>        -0.1116
     13 C11         4.5117   -4.4112   -5.4350 C.3       1 <0>         0.0753
     14 O3          5.8798   -4.7008   -5.1411 O.3       1 <0>        -0.3558
     15 C12         6.8050   -4.1508   -5.9431 C.2       1 <0>         0.4807
     16 O4          6.4645   -3.4469   -6.8642 O.2       1 <0>        -0.4831
     17 C13         8.2684   -4.4114   -5.6948 C.3       1 <0>         0.1757
     18 C14         9.0173   -3.0789   -5.5933 C.3       1 <0>        -0.1262
     19 C15        10.5193   -3.3498   -5.4807 C.3       1 <0>        -0.1167
     20 C16        11.0029   -4.0814   -6.7349 C.3       1 <0>        -0.1380
     21 C17        10.2765   -5.4253   -6.8492 C.3       1 <0>         0.1143
     22 N1          8.8276   -5.1843   -6.8122 N.am      1 <0>        -0.6230
     23 C18         8.0267   -5.6632   -7.7847 C.2       1 <0>         0.7071
     24 O5          6.8406   -5.3959   -7.7820 O.2       1 <0>        -0.5540
     25 N2          8.5407   -6.4383   -8.7601 N.am      1 <0>        -0.7369
     26 C19         7.6955   -6.8658   -9.8778 C.3       1 <0>         0.2024
     27 C20         6.5152   -7.6791   -9.3427 C.3       1 <0>        -0.1215
     28 C21         5.6325   -8.1256  -10.5099 C.3       1 <0>        -0.0821
     29 C22         6.4539   -8.9893  -11.4692 C.3       1 <0>        -0.1112
     30 C23         7.6342   -8.1760  -12.0043 C.3       1 <0>        -0.0794
     31 C24         8.5169   -7.7295  -10.8370 C.3       1 <0>        -0.1143
     32 C25         7.1104   -6.9454  -12.7474 C.3       1 <0>        -0.1112
     33 C26         6.2891   -6.0817  -11.7881 C.3       1 <0>        -0.0818
     34 C27         5.1088   -6.8950  -11.2530 C.3       1 <0>        -0.1081
     35 C28         7.1717   -5.6352  -10.6209 C.3       1 <0>        -0.1200
     36 H1         -0.5904   -6.4396    0.7309 H         1 <0>         0.0548
     37 H2         -2.0279   -5.7723   -0.0794 H         1 <0>         0.0548
     38 H3         -2.1446   -7.3022    0.8227 H         1 <0>         0.1008
     39 H4         -0.1884   -5.0011   -0.7318 H         1 <0>         0.1357
     40 H5          1.2608   -3.8683   -2.3670 H         1 <0>         0.1275
     41 H6          1.0831   -7.2853   -4.9128 H         1 <0>         0.1351
     42 H7         -0.3881   -8.6905   -5.3916 H         1 <0>         0.0550
     43 H8          1.0493   -9.3578   -4.5813 H         1 <0>         0.0549
     44 H9         -0.4618  -10.2973   -4.6294 H         1 <0>         0.1011
     45 H10         1.9085   -5.1600   -5.7405 H         1 <0>         0.0757
     46 H11         1.9821   -3.7340   -4.6778 H         1 <0>         0.0778
     47 H12         3.8490   -4.7700   -3.4168 H         1 <0>         0.0745
     48 H13         3.7754   -6.1960   -4.4795 H         1 <0>         0.0734
     49 H14         4.2738   -4.7612   -6.4394 H         1 <0>         0.0701
     50 H15         4.3474   -3.3352   -5.3768 H         1 <0>         0.0623
     51 H16         8.3875   -4.9715   -4.7673 H         1 <0>         0.0993
     52 H17         8.8210   -2.4825   -6.4843 H         1 <0>         0.0824
     53 H18         8.6781   -2.5372   -4.7104 H         1 <0>         0.0827
     54 H19        11.0526   -2.4041   -5.3836 H         1 <0>         0.0754
     55 H20        10.7122   -3.9670   -4.6032 H         1 <0>         0.0700
     56 H21        10.7879   -3.4756   -7.6151 H         1 <0>         0.0706
     57 H22        12.0770   -4.2533   -6.6644 H         1 <0>         0.0812
     58 H23        10.5430   -5.9058   -7.7906 H         1 <0>         0.0818
     59 H24        10.5617   -6.0669   -6.0155 H         1 <0>         0.0755
     60 H25         9.4701   -6.7131   -8.7222 H         1 <0>         0.3935
     61 H26         6.8883   -8.5558   -8.8133 H         1 <0>         0.0564
     62 H27         5.9300   -7.0638   -8.6593 H         1 <0>         0.0895
     63 H28         4.7917   -8.7050  -10.1287 H         1 <0>         0.0707
     64 H29         6.8270   -9.8660  -10.9398 H         1 <0>         0.0619
     65 H30         5.8251   -9.3074  -12.3007 H         1 <0>         0.0646
     66 H31         8.2194   -8.7913  -12.6877 H         1 <0>         0.0749
     67 H32         9.3577   -7.1501  -11.2183 H         1 <0>         0.0672
     68 H33         8.8900   -8.6062  -10.3076 H         1 <0>         0.0676
     69 H34         7.9513   -6.3660  -13.1286 H         1 <0>         0.0619
     70 H35         6.4816   -7.2635  -13.5790 H         1 <0>         0.0648
     71 H36         5.9159   -5.2050  -12.3175 H         1 <0>         0.0712
     72 H37         4.4799   -7.2130  -12.0846 H         1 <0>         0.0617
     73 H38         4.5236   -6.2796  -10.5696 H         1 <0>         0.0640
     74 H39         6.5866   -5.0199   -9.9375 H         1 <0>         0.0861
     75 H40         8.0126   -5.0558  -11.0021 H         1 <0>         0.0566
@<TRIPOS>BOND
     1    1    2 1
     2    1   36 1
     3    1   37 1
     4    1   38 1
     5    2    3 1
     6    3    8 ar
     7    3    4 ar
     8    4    5 ar
     9    4   39 1
    10    5    6 ar
    11    5   40 1
    12    6    7 ar
    13    6   11 1
    14    7    8 ar
    15    7   41 1
    16    8    9 1
    17    9   10 1
    18   10   42 1
    19   10   43 1
    20   10   44 1
    21   11   12 1
    22   11   45 1
    23   11   46 1
    24   12   13 1
    25   12   47 1
    26   12   48 1
    27   13   14 1
    28   13   49 1
    29   13   50 1
    30   14   15 1
    31   15   16 2
    32   15   17 1
    33   17   22 1
    34   17   18 1
    35   17   51 1
    36   18   19 1
    37   18   52 1
    38   18   53 1
    39   19   20 1
    40   19   54 1
    41   19   55 1
    42   20   21 1
    43   20   56 1
    44   20   57 1
    45   21   22 1
    46   21   58 1
    47   21   59 1
    48   22   23 am
    49   23   24 2
    50   23   25 am
    51   25   26 1
    52   25   60 1
    53   26   31 1
    54   26   35 1
    55   26   27 1
    56   27   28 1
    57   27   61 1
    58   27   62 1
    59   28   34 1
    60   28   29 1
    61   28   63 1
    62   29   30 1
    63   29   64 1
    64   29   65 1
    65   30   31 1
    66   30   32 1
    67   30   66 1
    68   31   67 1
    69   31   68 1
    70   32   33 1
    71   32   69 1
    72   32   70 1
    73   33   34 1
    74   33   35 1
    75   33   71 1
    76   34   72 1
    77   34   73 1
    78   35   74 1
    79   35   75 1
@<TRIPOS>MOLECULE
CHEMBL440799__1
   75    79     0     0     0
SMALL
USER_CHARGES

@<TRIPOS>ATOM
      1 C1          1.7428    4.9150   -7.9401 C.3       1 <0>         0.0260
      2 O1          1.7026    4.2812   -6.6599 O.3       1 <0>        -0.3074
      3 C2          2.0234    2.9604   -6.6145 C.ar      1 <0>         0.0957
      4 C3          2.3748    2.2909   -7.7757 C.ar      1 <0>        -0.1697
      5 C4          2.7011    0.9484   -7.7277 C.ar      1 <0>        -0.1112
      6 C5          2.6774    0.2707   -6.5229 C.ar      1 <0>        -0.0779
      7 C6          2.3273    0.9326   -5.3608 C.ar      1 <0>        -0.1681
      8 C7          2.0051    2.2797   -5.4010 C.ar      1 <0>         0.1013
      9 O2          1.6663    2.9338   -4.2578 O.3       1 <0>        -0.3067
     10 C8          1.6690    2.1715   -3.0491 C.3       1 <0>         0.0258
     11 C9          3.0335   -1.1928   -6.4763 C.3       1 <0>        -0.0734
     12 C10         4.5375   -1.3445   -6.2401 C.3       1 <0>        -0.1117
     13 C11         4.8991   -2.8304   -6.1928 C.3       1 <0>         0.0750
     14 O3          6.3038   -2.9720   -5.9722 O.3       1 <0>        -0.3541
     15 C12         6.7870   -4.2225   -5.9042 C.2       1 <0>         0.4819
     16 O4          6.0419   -5.1656   -6.0280 O.2       1 <0>        -0.4866
     17 C13         8.2587   -4.4502   -5.6735 C.3       1 <0>         0.1758
     18 C14         8.4568   -5.2801   -4.4012 C.3       1 <0>        -0.1269
     19 C15         9.9398   -5.6256   -4.2480 C.3       1 <0>        -0.1164
     20 C16        10.3970   -6.4612   -5.4459 C.3       1 <0>        -0.1395
     21 C17        10.2210   -5.6447   -6.7300 C.3       1 <0>         0.1154
     22 N1          8.8276   -5.1856   -6.8112 N.am      1 <0>        -0.6238
     23 C18         8.0855   -5.4343   -7.9084 C.2       1 <0>         0.7094
     24 O5          6.9718   -4.9570   -8.0101 O.2       1 <0>        -0.5556
     25 N2          8.5778   -6.2121   -8.8928 N.am      1 <0>        -0.7367
     26 C19         7.8187   -6.3924  -10.1328 C.3       1 <0>         0.2023
     27 C20         6.4596   -7.0178   -9.8123 C.3       1 <0>        -0.1217
     28 C21         5.6668   -7.2062  -11.1072 C.3       1 <0>        -0.0826
     29 C22         6.4424   -8.1277  -12.0507 C.3       1 <0>        -0.1114
     30 C23         7.8015   -7.5023  -12.3711 C.3       1 <0>        -0.0794
     31 C24         8.5943   -7.3140  -11.0762 C.3       1 <0>        -0.1143
     32 C25         7.5921   -6.1438  -13.0431 C.3       1 <0>        -0.1109
     33 C26         6.8165   -5.2223  -12.0997 C.3       1 <0>        -0.0817
     34 C27         5.4574   -5.8477  -11.7792 C.3       1 <0>        -0.1080
     35 C28         7.6093   -5.0340  -10.8047 C.3       1 <0>        -0.1192
     36 H1          2.7507    4.8441   -8.3490 H         1 <0>         0.0548
     37 H2          1.0422    4.4201   -8.6127 H         1 <0>         0.0548
     38 H3          1.4662    5.9640   -7.8350 H         1 <0>         0.1009
     39 H4          2.3934    2.8178   -8.7182 H         1 <0>         0.1356
     40 H5          2.9748    0.4277   -8.6334 H         1 <0>         0.1275
     41 H6          2.3091    0.4008   -4.4210 H         1 <0>         0.1352
     42 H7          0.9596    1.3486   -3.1369 H         1 <0>         0.0549
     43 H8          2.6681    1.7727   -2.8732 H         1 <0>         0.0550
     44 H9          1.3813    2.8117   -2.2151 H         1 <0>         0.1011
     45 H10         2.4879   -1.6739   -5.6646 H         1 <0>         0.0753
     46 H11         2.7652   -1.6623   -7.4228 H         1 <0>         0.0782
     47 H12         5.0832   -0.8634   -7.0518 H         1 <0>         0.0754
     48 H13         4.8058   -0.8750   -5.2936 H         1 <0>         0.0730
     49 H14         4.3535   -3.3115   -5.3811 H         1 <0>         0.0618
     50 H15         4.6308   -3.2999   -7.1393 H         1 <0>         0.0708
     51 H16         8.7649   -3.4905   -5.5688 H         1 <0>         0.1002
     52 H17         8.1260   -4.7048   -3.5365 H         1 <0>         0.0833
     53 H18         7.8746   -6.1989   -4.4719 H         1 <0>         0.0811
     54 H19        10.5239   -4.7065   -4.2023 H         1 <0>         0.0704
     55 H20        10.0870   -6.1952   -3.3305 H         1 <0>         0.0755
     56 H21        11.4472   -6.7266   -5.3246 H         1 <0>         0.0814
     57 H22         9.7966   -7.3689   -5.5067 H         1 <0>         0.0706
     58 H23        10.8889   -4.7835   -6.7099 H         1 <0>         0.0764
     59 H24        10.4512   -6.2682   -7.5939 H         1 <0>         0.0814
     60 H25         9.4347   -6.6524   -8.7804 H         1 <0>         0.3932
     61 H26         6.6087   -7.9856   -9.3335 H         1 <0>         0.0559
     62 H27         5.9069   -6.3613   -9.1402 H         1 <0>         0.0928
     63 H28         4.6985   -7.6517  -10.8789 H         1 <0>         0.0709
     64 H29         6.5916   -9.0955  -11.5719 H         1 <0>         0.0618
     65 H30         5.8776   -8.2619  -12.9732 H         1 <0>         0.0644
     66 H31         8.3542   -8.1588  -13.0432 H         1 <0>         0.0748
     67 H32         9.5626   -6.8684  -11.3045 H         1 <0>         0.0672
     68 H33         8.7435   -8.2818  -10.5974 H         1 <0>         0.0675
     69 H34         8.5604   -5.6983  -13.2714 H         1 <0>         0.0619
     70 H35         7.0273   -6.2780  -13.9657 H         1 <0>         0.0649
     71 H36         6.6673   -4.2545  -12.5784 H         1 <0>         0.0712
     72 H37         4.8926   -5.9819  -12.7018 H         1 <0>         0.0617
     73 H38         4.9048   -5.1912  -11.1071 H         1 <0>         0.0638
     74 H39         7.0566   -4.3775  -10.1326 H         1 <0>         0.0825
     75 H40         8.5775   -4.5885  -11.0331 H         1 <0>         0.0574
@<TRIPOS>BOND
     1    1    2 1
     2    1   36 1
     3    1   37 1
     4    1   38 1
     5    2    3 1
     6    3    8 ar
     7    3    4 ar
     8    4    5 ar
     9    4   39 1
    10    5    6 ar
    11    5   40 1
    12    6    7 ar
    13    6   11 1
    14    7    8 ar
    15    7   41 1
    16    8    9 1
    17    9   10 1
    18   10   42 1
    19   10   43 1
    20   10   44 1
    21   11   12 1
    22   11   45 1
    23   11   46 1
    24   12   13 1
    25   12   47 1
    26   12   48 1
    27   13   14 1
    28   13   49 1
    29   13   50 1
    30   14   15 1
    31   15   16 2
    32   15   17 1
    33   17   22 1
    34   17   18 1
    35   17   51 1
    36   18   19 1
    37   18   52 1
    38   18   53 1
    39   19   20 1
    40   19   54 1
    41   19   55 1
    42   20   21 1
    43   20   56 1
    44   20   57 1
    45   21   22 1
    46   21   58 1
    47   21   59 1
    48   22   23 am
    49   23   24 2
    50   23   25 am
    51   25   26 1
    52   25   60 1
    53   26   31 1
    54   26   35 1
    55   26   27 1
    56   27   28 1
    57   27   61 1
    58   27   62 1
    59   28   34 1
    60   28   29 1
    61   28   63 1
    62   29   30 1
    63   29   64 1
    64   29   65 1
    65   30   31 1
    66   30   32 1
    67   30   66 1
    68   31   67 1
    69   31   68 1
    70   32   33 1
    71   32   69 1
    72   32   70 1
    73   33   34 1
    74   33   35 1
    75   33   71 1
    76   34   72 1
    77   34   73 1
    78   35   74 1
    79   35   75 1
@<TRIPOS>MOLECULE
CHEMBL126300
   53    56     0     0     0
SMALL
USER_CHARGES

@<TRIPOS>ATOM
      1 C1         -0.0167    1.3781    0.0096 C.ar      1 <0>        -0.1227
      2 C2          1.1709    2.0855    0.0021 C.ar      1 <0>        -0.1179
      3 C3          2.3773    1.4107   -0.0130 C.ar      1 <0>        -0.1164
      4 C4          2.3960    0.0285   -0.0201 C.ar      1 <0>        -0.0847
      5 C5          1.2084   -0.6789   -0.0117 C.ar      1 <0>        -0.1162
      6 C6          0.0021   -0.0041    0.0020 C.ar      1 <0>        -0.1176
      7 C7          3.7112   -0.7071   -0.0376 C.3       1 <0>        -0.0742
      8 C8          4.1714   -0.9633    1.3989 C.3       1 <0>        -0.0989
      9 C9          5.5066   -1.7102    1.3812 C.3       1 <0>        -0.1005
     10 S1          6.0522   -2.0139    3.0843 S.3       1 <0>        -0.0839
     11 C10         7.4925   -2.8197    2.9069 C.2       1 <0>         0.2805
     12 O1          7.9205   -3.0601    1.7974 O.2       1 <0>        -0.4386
     13 C11         8.2686   -3.2527    4.1240 C.3       1 <0>         0.1334
     14 H1          7.5911   -3.6372    4.8865 H         1 <0>         0.1156
     15 C12         9.0982   -2.0584    4.6899 C.3       1 <0>        -0.0896
     16 C13         9.8151   -1.4701    3.4346 C.3       1 <0>        -0.1254
     17 C14        10.8095   -2.5775    3.0140 C.3       1 <0>        -0.1385
     18 C15        10.6064   -3.7058    4.0707 C.3       1 <0>         0.1358
     19 C16        10.2814   -2.8555    5.3487 C.3       1 <0>        -0.1269
     20 N1          9.2644   -4.2814    3.7576 N.pl3     1 <0>        -0.9922
     21 S2          8.9515   -5.7788    3.1234 S.o2      1 <0>         2.7019
     22 O2         10.0666   -6.5980    3.4471 O.2       1 <0>        -0.9504
     23 O3          7.6244   -6.1127    3.5060 O.2       1 <0>        -0.9539
     24 C17         8.9427   -5.6102    1.3695 C.ar      1 <0>        -0.6639
     25 C18         7.7666   -5.3053    0.7103 C.ar      1 <0>         0.0147
     26 C19         7.7597   -5.1731   -0.6656 C.ar      1 <0>        -0.1399
     27 C20         8.9290   -5.3453   -1.3824 C.ar      1 <0>        -0.0612
     28 C21        10.1054   -5.6494   -0.7232 C.ar      1 <0>        -0.1433
     29 C22        10.1132   -5.7774    0.6532 C.ar      1 <0>        -0.0191
     30 H2         -0.9591    1.9053    0.0259 H         1 <0>         0.1217
     31 H3          1.1563    3.1654    0.0076 H         1 <0>         0.1222
     32 H4          3.3051    1.9634   -0.0196 H         1 <0>         0.1212
     33 H5          1.2231   -1.7588   -0.0176 H         1 <0>         0.1216
     34 H6         -0.9258   -0.5567    0.0082 H         1 <0>         0.1224
     35 H7          3.5884   -1.6586   -0.5549 H         1 <0>         0.0761
     36 H8          4.4573   -0.1052   -0.5563 H         1 <0>         0.0759
     37 H9          4.2941   -0.0118    1.9163 H         1 <0>         0.0785
     38 H10         3.4252   -1.5652    1.9176 H         1 <0>         0.0790
     39 H11         5.3838   -2.6617    0.8639 H         1 <0>         0.0959
     40 H12         6.2527   -1.1082    0.8625 H         1 <0>         0.0965
     41 H13         8.5637   -1.3561    5.3297 H         1 <0>         0.1289
     42 H14         9.0957   -1.2805    2.6380 H         1 <0>         0.0668
     43 H15        10.3491   -0.5558    3.6935 H         1 <0>         0.0755
     44 H16        10.5710   -2.9439    2.0155 H         1 <0>         0.0765
     45 H17        11.8327   -2.2033    3.0487 H         1 <0>         0.0773
     46 H18        11.4261   -4.4179    4.1663 H         1 <0>         0.1320
     47 H19        11.1089   -2.2050    5.6319 H         1 <0>         0.0950
     48 H20         9.9477   -3.4746    6.1814 H         1 <0>         0.0852
     49 H21         6.8530   -5.1707    1.2703 H         1 <0>         0.1249
     50 H22         6.8406   -4.9355   -1.1807 H         1 <0>         0.1272
     51 H23         8.9235   -5.2427   -2.4575 H         1 <0>         0.1281
     52 H24        11.0189   -5.7843   -1.2832 H         1 <0>         0.1305
     53 H25        11.0330   -6.0113    1.1686 H         1 <0>         0.1351
@<TRIPOS>BOND
     1    1    6 ar
     2    1    2 ar
     3    1   30 1
     4    2    3 ar
     5    2   31 1
     6    3    4 ar
     7    3   32 1
     8    4    5 ar
     9    4    7 1
    10    5    6 ar
    11    5   33 1
    12    6   34 1
    13    7    8 1
    14    7   35 1
    15    7   36 1
    16    8    9 1
    17    8   37 1
    18    8   38 1
    19    9   10 1
    20    9   39 1
    21    9   40 1
    22   10   11 1
    23   11   12 2
    24   11   13 1
    25   13   14 1
    26   13   20 1
    27   13   15 1
    28   15   19 1
    29   15   16 1
    30   15   41 1
    31   16   17 1
    32   16   42 1
    33   16   43 1
    34   17   18 1
    35   17   44 1
    36   17   45 1
    37   18   19 1
    38   18   20 1
    39   18   46 1
    40   19   47 1
    41   19   48 1
    42   20   21 1
    43   21   22 2
    44   21   23 2
    45   21   24 1
    46   24   29 ar
    47   24   25 ar
    48   25   26 ar
    49   25   49 1
    50   26   27 ar
    51   26   50 1
    52   27   28 ar
    53   27   51 1
    54   28   29 ar
    55   28   52 1
    56   29   53 1
@<TRIPOS>MOLECULE
CHEMBL126300__1
   53    56     0     0     0
SMALL
USER_CHARGES

@<TRIPOS>ATOM
      1 C1         -0.0167    1.3781    0.0096 C.ar      1 <0>        -0.1227
      2 C2          1.1709    2.0855    0.0021 C.ar      1 <0>        -0.1180
      3 C3          2.3773    1.4107   -0.0130 C.ar      1 <0>        -0.1164
      4 C4          2.3960    0.0285   -0.0201 C.ar      1 <0>        -0.0847
      5 C5          1.2084   -0.6789   -0.0117 C.ar      1 <0>        -0.1162
      6 C6          0.0021   -0.0041    0.0020 C.ar      1 <0>        -0.1176
      7 C7          3.7112   -0.7071   -0.0376 C.3       1 <0>        -0.0744
      8 C8          4.1714   -0.9633    1.3989 C.3       1 <0>        -0.0989
      9 C9          5.5066   -1.7102    1.3812 C.3       1 <0>        -0.1012
     10 S1          6.0522   -2.0139    3.0843 S.3       1 <0>        -0.0819
     11 C10         7.4925   -2.8197    2.9069 C.2       1 <0>         0.2742
     12 O1          7.9205   -3.0601    1.7974 O.2       1 <0>        -0.4399
     13 C11         8.2686   -3.2527    4.1240 C.3       1 <0>         0.1355
     14 H1          7.5911   -3.6372    4.8865 H         1 <0>         0.1175
     15 C12         9.0982   -2.0584    4.6899 C.3       1 <0>        -0.0902
     16 C13         9.6315   -2.5859    6.0586 C.3       1 <0>        -0.1184
     17 C14        10.6236   -3.7071    5.6706 C.3       1 <0>        -0.1377
     18 C15        10.6035   -3.7232    4.1116 C.3       1 <0>         0.1415
     19 C16        10.3894   -2.1993    3.8055 C.3       1 <0>        -0.1356
     20 N1          9.2644   -4.2814    3.7576 N.pl3     1 <0>        -0.9918
     21 S2          8.9542   -5.7625    3.0851 S.o2      1 <0>         2.7005
     22 O2         10.0557   -6.5973    3.4155 O.2       1 <0>        -0.9492
     23 O3          7.6165   -6.0938    3.4315 O.2       1 <0>        -0.9539
     24 C17         8.9851   -5.5570    1.3354 C.ar      1 <0>        -0.6655
     25 C18         7.8260   -5.2289    0.6574 C.ar      1 <0>         0.0176
     26 C19         7.8503   -5.0677   -0.7153 C.ar      1 <0>        -0.1409
     27 C20         9.0337   -5.2342   -1.4099 C.ar      1 <0>        -0.0612
     28 C21        10.1931   -5.5614   -0.7319 C.ar      1 <0>        -0.1440
     29 C22        10.1697   -5.7184    0.6414 C.ar      1 <0>        -0.0201
     30 H2         -0.9591    1.9053    0.0259 H         1 <0>         0.1217
     31 H3          1.1563    3.1654    0.0076 H         1 <0>         0.1222
     32 H4          3.3051    1.9634   -0.0196 H         1 <0>         0.1213
     33 H5          1.2231   -1.7588   -0.0176 H         1 <0>         0.1216
     34 H6         -0.9258   -0.5567    0.0082 H         1 <0>         0.1224
     35 H7          3.5884   -1.6586   -0.5549 H         1 <0>         0.0762
     36 H8          4.4573   -0.1052   -0.5563 H         1 <0>         0.0761
     37 H9          4.2941   -0.0118    1.9163 H         1 <0>         0.0786
     38 H10         3.4252   -1.5652    1.9176 H         1 <0>         0.0791
     39 H11         5.3838   -2.6617    0.8639 H         1 <0>         0.0960
     40 H12         6.2527   -1.1082    0.8625 H         1 <0>         0.0970
     41 H13         8.6084   -1.0846    4.6912 H         1 <0>         0.1253
     42 H14        10.1458   -1.7915    6.5996 H         1 <0>         0.0788
     43 H15         8.8144   -2.9893    6.6568 H         1 <0>         0.0743
     44 H16        11.6237   -3.4735    6.0359 H         1 <0>         0.0821
     45 H17        10.2876   -4.6659    6.0654 H         1 <0>         0.0747
     46 H18        11.4635   -4.1907    3.6320 H         1 <0>         0.1258
     47 H19        10.1878   -2.0156    2.7502 H         1 <0>         0.0810
     48 H20        11.2108   -1.5856    4.1752 H         1 <0>         0.0932
     49 H21         6.9014   -5.0988    1.2002 H         1 <0>         0.1250
     50 H22         6.9445   -4.8120   -1.2450 H         1 <0>         0.1274
     51 H23         9.0526   -5.1089   -2.4825 H         1 <0>         0.1284
     52 H24        11.1176   -5.6918   -1.2746 H         1 <0>         0.1307
     53 H25        11.0762   -5.9705    1.1716 H         1 <0>         0.1350
@<TRIPOS>BOND
     1    1    6 ar
     2    1    2 ar
     3    1   30 1
     4    2    3 ar
     5    2   31 1
     6    3    4 ar
     7    3   32 1
     8    4    5 ar
     9    4    7 1
    10    5    6 ar
    11    5   33 1
    12    6   34 1
    13    7    8 1
    14    7   35 1
    15    7   36 1
    16    8    9 1
    17    8   37 1
    18    8   38 1
    19    9   10 1
    20    9   39 1
    21    9   40 1
    22   10   11 1
    23   11   12 2
    24   11   13 1
    25   13   14 1
    26   13   20 1
    27   13   15 1
    28   15   19 1
    29   15   16 1
    30   15   41 1
    31   16   17 1
    32   16   42 1
    33   16   43 1
    34   17   18 1
    35   17   44 1
    36   17   45 1
    37   18   19 1
    38   18   20 1
    39   18   46 1
    40   19   47 1
    41   19   48 1
    42   20   21 1
    43   21   22 2
    44   21   23 2
    45   21   24 1
    46   24   29 ar
    47   24   25 ar
    48   25   26 ar
    49   25   49 1
    50   26   27 ar
    51   26   50 1
    52   27   28 ar
    53   27   51 1
    54   28   29 ar
    55   28   52 1
    56   29   53 1
@<TRIPOS>MOLECULE
CHEMBL202123
   55    59     0     0     0
SMALL
USER_CHARGES

@<TRIPOS>ATOM
      1 C1         -2.8787   -3.0648    2.6077 C.3       1 <0>         0.0256
      2 O1         -3.0043   -4.1611    1.6997 O.3       1 <0>        -0.3155
      3 C2         -4.0226   -4.1047    0.8015 C.ar      1 <0>         0.1379
      4 C3         -4.8807   -3.0143    0.7893 C.ar      1 <0>        -0.2022
      5 C4         -5.9139   -2.9695   -0.1229 C.ar      1 <0>        -0.0753
      6 C5         -6.0999   -4.0034   -1.0294 C.ar      1 <0>        -0.1420
      7 C6         -5.2430   -5.0841   -1.0280 C.ar      1 <0>        -0.0227
      8 C7         -4.2042   -5.1319   -0.1081 C.ar      1 <0>        -0.1504
      9 C8         -5.3671   -6.2227   -2.0054 C.3       1 <0>        -0.1108
     10 C9         -6.7654   -6.2745   -2.6189 C.3       1 <0>         0.1011
     11 N1         -7.1187   -4.9028   -3.0430 N.am      1 <0>        -0.5980
     12 C10        -7.2540   -3.9106   -1.9905 C.3       1 <0>         0.1822
     13 C11        -7.4386   -2.4890   -2.4899 C.3       1 <0>         0.1444
     14 C12        -8.9369   -2.1669   -2.5702 C.3       1 <0>        -0.1289
     15 C13        -9.6001   -3.1159   -3.5710 C.3       1 <0>        -0.1275
     16 C14        -8.9634   -2.9403   -4.9510 C.3       1 <0>        -0.1224
     17 C15        -7.4648   -3.2506   -4.8636 C.3       1 <0>         0.1365
     18 C16        -7.2843   -4.6592   -4.3509 C.2       1 <0>         0.5190
     19 O2         -7.2888   -5.5849   -5.1345 O.2       1 <0>        -0.5222
     20 N2         -6.8728   -2.3566   -3.8443 N.pl3     1 <0>        -1.0005
     21 S1         -5.6620   -1.2842   -4.1996 S.o2      1 <0>         2.7812
     22 O3         -5.6762   -1.1082   -5.6096 O.2       1 <0>        -0.9530
     23 O4         -5.8034   -0.1976   -3.2948 O.2       1 <0>        -0.9563
     24 N3         -4.2278   -2.0247   -3.8295 N.pl3     1 <0>        -1.0689
     25 C17        -3.7739   -3.0962   -4.6044 C.ar      1 <0>         0.1542
     26 C18        -4.3561   -4.3497   -4.4665 C.ar      1 <0>        -0.1274
     27 C19        -3.9068   -5.4078   -5.2326 C.ar      1 <0>        -0.1046
     28 C20        -2.8764   -5.2206   -6.1376 C.ar      1 <0>         0.0793
     29 C21        -2.2927   -3.9706   -6.2774 C.ar      1 <0>         0.0834
     30 C22        -2.7445   -2.9073   -5.5167 C.ar      1 <0>        -0.1147
     31 F1         -1.2868   -3.7899   -7.1610 F         1 <0>        -0.1203
     32 F2         -2.4386   -6.2572   -6.8854 F         1 <0>        -0.1210
     33 H1         -2.0286   -3.2357    3.2682 H         1 <0>         0.1025
     34 H2         -2.7230   -2.1438    2.0460 H         1 <0>         0.0575
     35 H3         -3.7886   -2.9788    3.2016 H         1 <0>         0.0577
     36 H4         -4.7403   -2.2051    1.4907 H         1 <0>         0.1337
     37 H5         -6.5841   -2.1227   -0.1315 H         1 <0>         0.1321
     38 H6         -3.5348   -5.9795   -0.0996 H         1 <0>         0.1326
     39 H7         -4.6328   -6.0927   -2.8004 H         1 <0>         0.0885
     40 H8         -5.1692   -7.1612   -1.4876 H         1 <0>         0.0961
     41 H9         -6.7662   -6.9402   -3.4819 H         1 <0>         0.1098
     42 H10        -7.4817   -6.6282   -1.8773 H         1 <0>         0.0833
     43 H11        -8.1542   -4.1618   -1.4296 H         1 <0>         0.0952
     44 H12        -6.9388   -1.7950   -1.8140 H         1 <0>         0.1218
     45 H13        -9.3909   -2.2977   -1.5880 H         1 <0>         0.0862
     46 H14        -9.0710   -1.1369   -2.9007 H         1 <0>         0.0840
     47 H15        -9.4657   -4.1452   -3.2382 H         1 <0>         0.0684
     48 H16       -10.6650   -2.8918   -3.6320 H         1 <0>         0.0794
     49 H17        -9.4352   -3.6223   -5.6585 H         1 <0>         0.0896
     50 H18        -9.1029   -1.9131   -5.2877 H         1 <0>         0.0874
     51 H19        -6.9847   -3.1253   -5.8341 H         1 <0>         0.1415
     52 H20        -3.7026   -1.7150   -3.0750 H         1 <0>         0.4277
     53 H21        -5.1596   -4.4973   -3.7602 H         1 <0>         0.1563
     54 H22        -4.3599   -6.3823   -5.1250 H         1 <0>         0.1542
     55 H23        -2.2935   -1.9324   -5.6286 H         1 <0>         0.1547
@<TRIPOS>BOND
     1    1    2 1
     2    1   33 1
     3    1   34 1
     4    1   35 1
     5    2    3 1
     6    3    8 ar
     7    3    4 ar
     8    4    5 ar
     9    4   36 1
    10    5    6 ar
    11    5   37 1
    12    6   12 1
    13    6    7 ar
    14    7    8 ar
    15    7    9 1
    16    8   38 1
    17    9   10 1
    18    9   39 1
    19    9   40 1
    20   10   11 1
    21   10   41 1
    22   10   42 1
    23   11   18 am
    24   11   12 1
    25   12   13 1
    26   12   43 1
    27   13   20 1
    28   13   14 1
    29   13   44 1
    30   14   15 1
    31   14   45 1
    32   14   46 1
    33   15   16 1
    34   15   47 1
    35   15   48 1
    36   16   17 1
    37   16   49 1
    38   16   50 1
    39   17   18 1
    40   17   20 1
    41   17   51 1
    42   18   19 2
    43   20   21 1
    44   21   22 2
    45   21   23 2
    46   21   24 1
    47   24   25 1
    48   24   52 1
    49   25   30 ar
    50   25   26 ar
    51   26   27 ar
    52   26   53 1
    53   27   28 ar
    54   27   54 1
    55   28   29 ar
    56   28   32 1
    57   29   30 ar
    58   29   31 1
    59   30   55 1
@<TRIPOS>MOLECULE
CHEMBL202123__1
   54    58     0     0     0
SMALL
USER_CHARGES

@<TRIPOS>ATOM
      1 C1         -0.0173    1.4248    0.0099 C.3       1 <0>         0.0279
      2 O1          0.0021   -0.0041    0.0020 O.3       1 <0>        -0.3191
      3 C2         -1.2003   -0.6375    0.0101 C.ar      1 <0>         0.1306
      4 C3         -2.3757    0.0999    0.0195 C.ar      1 <0>        -0.2018
      5 C4         -3.5903   -0.5528    0.0329 C.ar      1 <0>        -0.0682
      6 C5         -3.6461   -1.9393    0.0338 C.ar      1 <0>        -0.1240
      7 C6         -2.4806   -2.6762    0.0136 C.ar      1 <0>        -0.0167
      8 C7         -1.2569   -2.0204    0.0032 C.ar      1 <0>        -0.1510
      9 C8         -2.4696   -4.1815   -0.0207 C.3       1 <0>        -0.0976
     10 C9         -3.8046   -4.7547    0.4522 C.3       1 <0>         0.1070
     11 N1         -4.8801   -4.0138   -0.2410 N.am      1 <0>        -0.5880
     12 C10        -4.9983   -2.5988    0.0666 C.3       1 <0>         0.1910
     13 C11        -5.9944   -1.8504   -0.8006 C.3       1 <0>         0.1492
     14 C12        -7.3559   -1.8084   -0.0936 C.3       1 <0>        -0.1299
     15 C13        -7.8658   -3.2388    0.0961 C.3       1 <0>        -0.1233
     16 C14        -8.0163   -3.9197   -1.2657 C.3       1 <0>        -0.1222
     17 C15        -6.6570   -3.9481   -1.9737 C.3       1 <0>         0.1466
     18 C16        -5.6644   -4.6784   -1.1014 C.2       1 <0>         0.5299
     19 O2         -5.5749   -5.8853   -1.1806 O.2       1 <0>        -0.5474
     20 N2         -6.1706   -2.5551   -2.0829 N.pl3     1 <0>        -0.9812
     21 S1         -5.8479   -1.8393   -3.5409 S.o2      1 <0>         2.7163
     22 O3         -6.6193   -2.5316   -4.5129 O.2       1 <0>        -1.0400
     23 O4         -5.9584   -0.4371   -3.3382 O.2       1 <0>        -1.0391
     24 N3         -4.2587   -2.1426   -3.8942 N.2       1 <0>        -1.0897
     25 C17        -3.7004   -1.6541   -5.0793 C.ar      1 <0>         0.3045
     26 C18        -4.4765   -0.9094   -5.9582 C.ar      1 <0>        -0.2518
     27 C19        -3.9240   -0.4273   -7.1289 C.ar      1 <0>        -0.0656
     28 C20        -2.5974   -0.6857   -7.4277 C.ar      1 <0>        -0.0547
     29 C21        -1.8200   -1.4291   -6.5527 C.ar      1 <0>         0.1100
     30 C22        -2.3681   -1.9079   -5.3763 C.ar      1 <0>        -0.1935
     31 F1         -0.5255   -1.6807   -6.8462 F         1 <0>        -0.1449
     32 F2         -2.0596   -0.2134   -8.5735 F         1 <0>        -0.1541
     33 H1          1.0053    1.8021    0.0021 H         1 <0>         0.0969
     34 H2         -0.5445    1.7859   -0.8732 H         1 <0>         0.0572
     35 H3         -0.5275    1.7763    0.9067 H         1 <0>         0.0530
     36 H4         -2.3395    1.1793    0.0166 H         1 <0>         0.1277
     37 H5         -4.5058    0.0200    0.0431 H         1 <0>         0.1273
     38 H6         -0.3418   -2.5939   -0.0062 H         1 <0>         0.1275
     39 H7         -2.2793   -4.5142   -1.0411 H         1 <0>         0.0891
     40 H8         -1.6738   -4.5479    0.6278 H         1 <0>         0.0852
     41 H9         -3.8628   -5.8134    0.1995 H         1 <0>         0.1030
     42 H10        -3.9017   -4.6251    1.5301 H         1 <0>         0.0728
     43 H11        -5.3620   -2.5249    1.0914 H         1 <0>         0.0806
     44 H12        -5.6331   -0.8386   -0.9846 H         1 <0>         0.1181
     45 H13        -7.2469   -1.3284    0.8789 H         1 <0>         0.0770
     46 H14        -8.0649   -1.2463   -0.7014 H         1 <0>         0.0774
     47 H15        -7.1560   -3.7989    0.7048 H         1 <0>         0.0653
     48 H16        -8.8330   -3.2152    0.5983 H         1 <0>         0.0702
     49 H17        -8.3741   -4.9395   -1.1247 H         1 <0>         0.0804
     50 H18        -8.7310   -3.3641   -1.8729 H         1 <0>         0.0811
     51 H19        -6.7381   -4.4222   -2.9519 H         1 <0>         0.1337
     52 H20        -5.5119   -0.7077   -5.7265 H         1 <0>         0.1086
     53 H21        -4.5280    0.1517   -7.8119 H         1 <0>         0.1257
     54 H22        -1.7618   -2.4829   -4.6921 H         1 <0>         0.1326
@<TRIPOS>BOND
     1    1    2 1
     2    1   33 1
     3    1   34 1
     4    1   35 1
     5    2    3 1
     6    3    8 ar
     7    3    4 ar
     8    4    5 ar
     9    4   36 1
    10    5    6 ar
    11    5   37 1
    12    6   12 1
    13    6    7 ar
    14    7    8 ar
    15    7    9 1
    16    8   38 1
    17    9   10 1
    18    9   39 1
    19    9   40 1
    20   10   11 1
    21   10   41 1
    22   10   42 1
    23   11   18 am
    24   11   12 1
    25   12   13 1
    26   12   43 1
    27   13   20 1
    28   13   14 1
    29   13   44 1
    30   14   15 1
    31   14   45 1
    32   14   46 1
    33   15   16 1
    34   15   47 1
    35   15   48 1
    36   16   17 1
    37   16   49 1
    38   16   50 1
    39   17   18 1
    40   17   20 1
    41   17   51 1
    42   18   19 2
    43   20   21 1
    44   21   22 2
    45   21   23 2
    46   21   24 1
    47   24   25 1
    48   25   30 ar
    49   25   26 ar
    50   26   27 ar
    51   26   52 1
    52   27   28 ar
    53   27   53 1
    54   28   29 ar
    55   28   32 1
    56   29   30 ar
    57   29   31 1
    58   30   54 1
@<TRIPOS>MOLECULE
CHEMBL202123__2
   55    59     0     0     0
SMALL
USER_CHARGES

@<TRIPOS>ATOM
      1 C1         -0.0326    1.3773   -1.0564 C.3       1 <0>         0.0257
      2 O1         -0.0274   -0.0506   -1.1134 O.3       1 <0>        -0.3155
      3 C2         -1.2257   -0.6777   -0.9800 C.ar      1 <0>         0.1404
      4 C3         -2.3822    0.0683   -0.8038 C.ar      1 <0>        -0.2115
      5 C4         -3.6035   -0.5673   -0.6664 C.ar      1 <0>        -0.0724
      6 C5         -3.6633   -1.9422   -0.7066 C.ar      1 <0>        -0.1377
      7 C6         -2.5087   -2.6904   -0.8845 C.ar      1 <0>        -0.0317
      8 C7         -1.2917   -2.0649   -1.0260 C.ar      1 <0>        -0.1412
      9 C8         -2.6481   -4.1898   -0.9216 C.3       1 <0>        -0.0934
     10 C9         -3.8149   -4.5731   -1.8261 C.3       1 <0>         0.1195
     11 N1         -5.0148   -3.7692   -1.5444 N.am      1 <0>        -0.5935
     12 C10        -4.9632   -2.6910   -0.5613 C.3       1 <0>         0.1900
     13 C11        -6.1310   -1.7234   -0.6872 C.3       1 <0>         0.1477
     14 C12        -5.9266   -0.7631   -1.8554 C.3       1 <0>        -0.1686
     15 C13        -5.9872   -1.5110   -3.1866 C.3       1 <0>        -0.1232
     16 C14        -7.3242   -2.2501   -3.3078 C.3       1 <0>        -0.1255
     17 C15        -7.3989   -3.2769   -2.1595 C.3       1 <0>         0.1426
     18 C16        -6.1342   -4.0947   -2.2142 C.2       1 <0>         0.5188
     19 O2         -6.1258   -5.0971   -2.8969 O.2       1 <0>        -0.5308
     20 N2         -7.3669   -2.4978   -0.9023 N.pl3     1 <0>        -0.9998
     21 S1         -8.6210   -2.4962    0.1791 S.o2      1 <0>         2.7839
     22 O3         -9.3994   -3.6518   -0.0999 O.2       1 <0>        -0.9532
     23 O4         -8.0537   -2.2504    1.4586 O.2       1 <0>        -0.9551
     24 N3         -9.5721   -1.1879   -0.1761 N.pl3     1 <0>        -1.0632
     25 C17        -9.0441    0.1039   -0.0911 C.ar      1 <0>         0.1669
     26 C18        -8.2896    0.4753    1.0143 C.ar      1 <0>        -0.1398
     27 C19        -7.7684    1.7519    1.0974 C.ar      1 <0>        -0.0979
     28 C20        -7.9974    2.6622    0.0801 C.ar      1 <0>         0.0614
     29 C21        -8.7506    2.2947   -1.0247 C.ar      1 <0>         0.0907
     30 C22        -9.2685    1.0152   -1.1143 C.ar      1 <0>        -0.1386
     31 F1         -8.9735    3.1846   -2.0165 F         1 <0>        -0.1214
     32 F2         -7.4870    3.9102    0.1638 F         1 <0>        -0.1237
     33 H1          0.9849    1.7493   -1.1760 H         1 <0>         0.1023
     34 H2         -0.6596    1.7706   -1.8566 H         1 <0>         0.0572
     35 H3         -0.4270    1.7010   -0.0932 H         1 <0>         0.0579
     36 H4         -2.3291    1.1466   -0.7736 H         1 <0>         0.1327
     37 H5         -4.5047    0.0118   -0.5280 H         1 <0>         0.1469
     38 H6         -0.3936   -2.6478   -1.1678 H         1 <0>         0.1355
     39 H7         -1.7292   -4.6302   -1.3084 H         1 <0>         0.0975
     40 H8         -2.8325   -4.5622    0.0860 H         1 <0>         0.0904
     41 H9         -3.5226   -4.4223   -2.8653 H         1 <0>         0.0721
     42 H10        -4.0500   -5.6266   -1.6745 H         1 <0>         0.0834
     43 H11        -4.9968   -3.1314    0.4352 H         1 <0>         0.0907
     44 H12        -6.2224   -1.1463    0.2330 H         1 <0>         0.1152
     45 H13        -6.7067   -0.0021   -1.8353 H         1 <0>         0.0741
     46 H14        -4.9536   -0.2815   -1.7582 H         1 <0>         0.1173
     47 H15        -5.8912   -0.7993   -4.0066 H         1 <0>         0.0737
     48 H16        -5.1699   -2.2305   -3.2354 H         1 <0>         0.0722
     49 H17        -8.1475   -1.5407   -3.2232 H         1 <0>         0.0838
     50 H18        -7.3762   -2.7646   -4.2673 H         1 <0>         0.0875
     51 H19        -8.2880   -3.9029   -2.2342 H         1 <0>         0.1457
     52 H20       -10.4956   -1.3178   -0.4431 H         1 <0>         0.4315
     53 H21        -8.1108   -0.2338    1.8091 H         1 <0>         0.1720
     54 H22        -7.1818    2.0402    1.9572 H         1 <0>         0.1573
     55 H23        -9.8512    0.7270   -1.9768 H         1 <0>         0.1534
@<TRIPOS>BOND
     1    1    2 1
     2    1   33 1
     3    1   34 1
     4    1   35 1
     5    2    3 1
     6    3    8 ar
     7    3    4 ar
     8    4    5 ar
     9    4   36 1
    10    5    6 ar
    11    5   37 1
    12    6   12 1
    13    6    7 ar
    14    7    8 ar
    15    7    9 1
    16    8   38 1
    17    9   10 1
    18    9   39 1
    19    9   40 1
    20   10   11 1
    21   10   41 1
    22   10   42 1
    23   11   18 am
    24   11   12 1
    25   12   13 1
    26   12   43 1
    27   13   20 1
    28   13   14 1
    29   13   44 1
    30   14   15 1
    31   14   45 1
    32   14   46 1
    33   15   16 1
    34   15   47 1
    35   15   48 1
    36   16   17 1
    37   16   49 1
    38   16   50 1
    39   17   18 1
    40   17   20 1
    41   17   51 1
    42   18   19 2
    43   20   21 1
    44   21   22 2
    45   21   23 2
    46   21   24 1
    47   24   25 1
    48   24   52 1
    49   25   30 ar
    50   25   26 ar
    51   26   27 ar
    52   26   53 1
    53   27   28 ar
    54   27   54 1
    55   28   29 ar
    56   28   32 1
    57   29   30 ar
    58   29   31 1
    59   30   55 1
@<TRIPOS>MOLECULE
CHEMBL202123__3
   54    58     0     0     0
SMALL
USER_CHARGES

@<TRIPOS>ATOM
      1 C1         -0.0173    1.4248    0.0099 C.3       1 <0>         0.0269
      2 O1          0.0021   -0.0041    0.0020 O.3       1 <0>        -0.3189
      3 C2         -1.2003   -0.6375    0.0101 C.ar      1 <0>         0.1315
      4 C3         -2.3735    0.1033    0.0196 C.ar      1 <0>        -0.2121
      5 C4         -3.5992   -0.5386    0.0292 C.ar      1 <0>        -0.0684
      6 C5         -3.6465   -1.9147    0.0283 C.ar      1 <0>        -0.1267
      7 C6         -2.4751   -2.6576    0.0170 C.ar      1 <0>        -0.0359
      8 C7         -1.2531   -2.0259    0.0031 C.ar      1 <0>        -0.1446
      9 C8         -2.6012   -4.1586    0.0137 C.3       1 <0>        -0.0910
     10 C9         -3.6474   -4.5821   -1.0121 C.3       1 <0>         0.1198
     11 N1         -4.8768   -3.7804   -0.9052 N.am      1 <0>        -0.5952
     12 C10        -4.9506   -2.6702    0.0400 C.3       1 <0>         0.1853
     13 C11        -6.0994   -1.7180   -0.2591 C.3       1 <0>         0.1549
     14 C12        -5.7595   -0.7947   -1.4255 C.3       1 <0>        -0.1641
     15 C13        -5.6541   -1.5863   -2.7283 C.3       1 <0>        -0.1183
     16 C14        -6.9626   -2.3413   -2.9858 C.3       1 <0>        -0.1251
     17 C15        -7.1710   -3.3305   -1.8211 C.3       1 <0>         0.1503
     18 C16        -5.9048   -4.1380   -1.6945 C.2       1 <0>         0.5220
     19 O2         -5.8084   -5.1621   -2.3370 O.2       1 <0>        -0.5457
     20 N2         -7.2960   -2.5103   -0.5963 N.pl3     1 <0>        -0.9845
     21 S1         -8.6722   -2.4848    0.3244 S.o2      1 <0>         2.7172
     22 O3         -9.3543   -3.7050    0.0692 O.2       1 <0>        -1.0374
     23 O4         -8.2789   -2.0909    1.6319 O.2       1 <0>        -1.0392
     24 N3         -9.6338   -1.2726   -0.2659 N.2       1 <0>        -1.0962
     25 C17       -10.8754   -1.0157    0.3232 C.ar      1 <0>         0.3018
     26 C18       -11.3008   -1.7729    1.4071 C.ar      1 <0>        -0.2501
     27 C19       -12.5278   -1.5183    1.9884 C.ar      1 <0>        -0.0656
     28 C20       -13.3347   -0.5093    1.4916 C.ar      1 <0>        -0.0525
     29 C21       -12.9132    0.2482    0.4093 C.ar      1 <0>         0.1097
     30 C22       -11.6822    0.0004   -0.1711 C.ar      1 <0>        -0.1947
     31 F1        -13.7022    1.2323   -0.0746 F         1 <0>        -0.1445
     32 F2        -14.5344   -0.2625    2.0615 F         1 <0>        -0.1535
     33 H1          1.0053    1.8021    0.0021 H         1 <0>         0.0985
     34 H2         -0.5445    1.7859   -0.8732 H         1 <0>         0.0562
     35 H3         -0.5275    1.7763    0.9067 H         1 <0>         0.0567
     36 H4         -2.3299    1.1824    0.0198 H         1 <0>         0.1309
     37 H5         -4.5134    0.0363    0.0377 H         1 <0>         0.1529
     38 H6         -0.3414   -2.6049   -0.0089 H         1 <0>         0.1318
     39 H7         -1.6398   -4.6031   -0.2437 H         1 <0>         0.0931
     40 H8         -2.9047   -4.4995    1.0036 H         1 <0>         0.0881
     41 H9         -3.2319   -4.4627   -2.0127 H         1 <0>         0.0679
     42 H10        -3.8938   -5.6322   -0.8548 H         1 <0>         0.0787
     43 H11        -5.1027   -3.0780    1.0393 H         1 <0>         0.0852
     44 H12        -6.3049   -1.1119    0.6233 H         1 <0>         0.1137
     45 H13        -6.5402   -0.0406   -1.5258 H         1 <0>         0.0822
     46 H14        -4.8080   -0.3013   -1.2273 H         1 <0>         0.1037
     47 H15        -5.4628   -0.9010   -3.5541 H         1 <0>         0.0655
     48 H16        -4.8332   -2.2995   -2.6534 H         1 <0>         0.0630
     49 H17        -7.7937   -1.6371   -3.0255 H         1 <0>         0.0937
     50 H18        -6.8950   -2.8874   -3.9267 H         1 <0>         0.0746
     51 H19        -8.0412   -3.9668   -1.9820 H         1 <0>         0.1378
     52 H20       -10.6725   -2.5609    1.7952 H         1 <0>         0.1096
     53 H21       -12.8580   -2.1074    2.8312 H         1 <0>         0.1264
     54 H22       -11.3514    0.5932   -1.0110 H         1 <0>         0.1347
@<TRIPOS>BOND
     1    1    2 1
     2    1   33 1
     3    1   34 1
     4    1   35 1
     5    2    3 1
     6    3    8 ar
     7    3    4 ar
     8    4    5 ar
     9    4   36 1
    10    5    6 ar
    11    5   37 1
    12    6   12 1
    13    6    7 ar
    14    7    8 ar
    15    7    9 1
    16    8   38 1
    17    9   10 1
    18    9   39 1
    19    9   40 1
    20   10   11 1
    21   10   41 1
    22   10   42 1
    23   11   18 am
    24   11   12 1
    25   12   13 1
    26   12   43 1
    27   13   20 1
    28   13   14 1
    29   13   44 1
    30   14   15 1
    31   14   45 1
    32   14   46 1
    33   15   16 1
    34   15   47 1
    35   15   48 1
    36   16   17 1
    37   16   49 1
    38   16   50 1
    39   17   18 1
    40   17   20 1
    41   17   51 1
    42   18   19 2
    43   20   21 1
    44   21   22 2
    45   21   23 2
    46   21   24 1
    47   24   25 1
    48   25   30 ar
    49   25   26 ar
    50   26   27 ar
    51   26   52 1
    52   27   28 ar
    53   27   53 1
    54   28   29 ar
    55   28   32 1
    56   29   30 ar
    57   29   31 1
    58   30   54 1
@<TRIPOS>MOLECULE
CHEMBL202123__4
   55    59     0     0     0
SMALL
USER_CHARGES

@<TRIPOS>ATOM
      1 C1          0.0101    1.2590    1.1873 C.3       1 <0>         0.0258
      2 O1          0.0499   -0.1274    0.8434 O.3       1 <0>        -0.3154
      3 C2         -1.1432   -0.7565    0.6777 C.ar      1 <0>         0.1411
      4 C3         -2.3270   -0.0506    0.8377 C.ar      1 <0>        -0.2116
      5 C4         -3.5435   -0.6879    0.6690 C.ar      1 <0>        -0.0725
      6 C5         -3.5715   -2.0251    0.3426 C.ar      1 <0>        -0.1391
      7 C6         -2.3894   -2.7337    0.1835 C.ar      1 <0>        -0.0312
      8 C7         -1.1764   -2.1046    0.3427 C.ar      1 <0>        -0.1415
      9 C8         -2.4945   -4.1945   -0.1691 C.3       1 <0>        -0.0933
     10 C9         -3.5354   -4.8622    0.7237 C.3       1 <0>         0.1201
     11 N1         -4.7762   -4.0748    0.8035 N.am      1 <0>        -0.5904
     12 C10        -4.8643   -2.7743    0.1454 C.3       1 <0>         0.1880
     13 C11        -6.0282   -1.9358    0.6534 C.3       1 <0>         0.1439
     14 C12        -5.7058   -1.3082    2.0064 C.3       1 <0>        -0.1648
     15 C13        -5.5935   -2.3819    3.0878 C.3       1 <0>        -0.1253
     16 C14        -6.8910   -3.1949    3.1515 C.3       1 <0>        -0.1231
     17 C15        -7.0793   -3.8857    1.7855 C.3       1 <0>         0.1452
     18 C16        -5.7999   -4.6222    1.4819 C.2       1 <0>         0.5148
     19 O2         -5.6881   -5.7661    1.8691 O.2       1 <0>        -0.5321
     20 N2         -7.2132   -2.8026    0.7868 N.pl3     1 <0>        -0.9995
     21 S1         -8.5871   -2.5808   -0.1108 S.o2      1 <0>         2.7840
     22 O3         -9.6700   -3.0472    0.6822 O.2       1 <0>        -0.9525
     23 O4         -8.5306   -1.2549   -0.6189 O.2       1 <0>        -0.9555
     24 N3         -8.4869   -3.5930   -1.4176 N.pl3     1 <0>        -1.0648
     25 C17        -7.4449   -3.4454   -2.3380 C.ar      1 <0>         0.1648
     26 C18        -7.1087   -2.1836   -2.8112 C.ar      1 <0>        -0.1381
     27 C19        -6.0790   -2.0388   -3.7206 C.ar      1 <0>        -0.0980
     28 C20        -5.3816   -3.1502   -4.1615 C.ar      1 <0>         0.0623
     29 C21        -5.7149   -4.4114   -3.6913 C.ar      1 <0>         0.0902
     30 C22        -6.7411   -4.5594   -2.7756 C.ar      1 <0>        -0.1380
     31 F1         -5.0334   -5.4951   -4.1231 F         1 <0>        -0.1209
     32 F2         -4.3752   -3.0060   -5.0512 F         1 <0>        -0.1230
     33 H1          1.0272    1.6374    1.2894 H         1 <0>         0.1023
     34 H2         -0.5068    1.8130    0.4038 H         1 <0>         0.0579
     35 H3         -0.5205    1.3841    2.1312 H         1 <0>         0.0573
     36 H4         -2.2988    0.9980    1.0947 H         1 <0>         0.1331
     37 H5         -4.4657   -0.1396    0.7931 H         1 <0>         0.1497
     38 H6         -0.2566   -2.6555    0.2123 H         1 <0>         0.1352
     39 H7         -2.7929   -4.2954   -1.2126 H         1 <0>         0.0875
     40 H8         -1.5272   -4.6743   -0.0204 H         1 <0>         0.0976
     41 H9         -3.7666   -5.8489    0.3225 H         1 <0>         0.0823
     42 H10        -3.1225   -4.9761    1.7260 H         1 <0>         0.0724
     43 H11        -5.0077   -2.9375   -0.9227 H         1 <0>         0.0825
     44 H12        -6.2406   -1.1420   -0.0626 H         1 <0>         0.1220
     45 H13        -4.7609   -0.7694    1.9361 H         1 <0>         0.1175
     46 H14        -6.4976   -0.6092    2.2756 H         1 <0>         0.0790
     47 H15        -4.7613   -3.0457    2.8540 H         1 <0>         0.0710
     48 H16        -5.4162   -1.9068    4.0527 H         1 <0>         0.0748
     49 H17        -6.8182   -3.9458    3.9382 H         1 <0>         0.0874
     50 H18        -7.7332   -2.5319    3.3494 H         1 <0>         0.0880
     51 H19        -7.9398   -4.5547    1.7861 H         1 <0>         0.1402
     52 H20        -9.1512   -4.2884   -1.5445 H         1 <0>         0.4312
     53 H21        -7.6526   -1.3157   -2.4685 H         1 <0>         0.1722
     54 H22        -5.8180   -1.0574   -4.0882 H         1 <0>         0.1574
     55 H23        -6.9980   -5.5409   -2.4055 H         1 <0>         0.1521
@<TRIPOS>BOND
     1    1    2 1
     2    1   33 1
     3    1   34 1
     4    1   35 1
     5    2    3 1
     6    3    8 ar
     7    3    4 ar
     8    4    5 ar
     9    4   36 1
    10    5    6 ar
    11    5   37 1
    12    6   12 1
    13    6    7 ar
    14    7    8 ar
    15    7    9 1
    16    8   38 1
    17    9   10 1
    18    9   39 1
    19    9   40 1
    20   10   11 1
    21   10   41 1
    22   10   42 1
    23   11   18 am
    24   11   12 1
    25   12   13 1
    26   12   43 1
    27   13   20 1
    28   13   14 1
    29   13   44 1
    30   14   15 1
    31   14   45 1
    32   14   46 1
    33   15   16 1
    34   15   47 1
    35   15   48 1
    36   16   17 1
    37   16   49 1
    38   16   50 1
    39   17   18 1
    40   17   20 1
    41   17   51 1
    42   18   19 2
    43   20   21 1
    44   21   22 2
    45   21   23 2
    46   21   24 1
    47   24   25 1
    48   24   52 1
    49   25   30 ar
    50   25   26 ar
    51   26   27 ar
    52   26   53 1
    53   27   28 ar
    54   27   54 1
    55   28   29 ar
    56   28   32 1
    57   29   30 ar
    58   29   31 1
    59   30   55 1
@<TRIPOS>MOLECULE
CHEMBL202123__5
   54    58     0     0     0
SMALL
USER_CHARGES

@<TRIPOS>ATOM
      1 C1         -0.0173    1.4248    0.0099 C.3       1 <0>         0.0272
      2 O1          0.0021   -0.0041    0.0020 O.3       1 <0>        -0.3189
      3 C2         -1.2003   -0.6375    0.0101 C.ar      1 <0>         0.1304
      4 C3         -2.3736    0.1031    0.0195 C.ar      1 <0>        -0.2127
      5 C4         -3.5994   -0.5387    0.0270 C.ar      1 <0>        -0.0718
      6 C5         -3.6470   -1.9147    0.0258 C.ar      1 <0>        -0.1262
      7 C6         -2.4754   -2.6575    0.0179 C.ar      1 <0>        -0.0344
      8 C7         -1.2533   -2.0260    0.0031 C.ar      1 <0>        -0.1440
      9 C8         -2.6018   -4.1586    0.0216 C.3       1 <0>        -0.0915
     10 C9         -3.6310   -4.5822    1.0647 C.3       1 <0>         0.1213
     11 N1         -4.8621   -3.7806    0.9779 N.am      1 <0>        -0.5908
     12 C10        -4.9508   -2.6707    0.0333 C.3       1 <0>         0.1854
     13 C11        -6.0960   -1.7197    0.3493 C.3       1 <0>         0.1534
     14 C12        -5.7403   -0.7956    1.5102 C.3       1 <0>        -0.1644
     15 C13        -5.6167   -1.5856    2.8123 C.3       1 <0>        -0.1210
     16 C14        -6.9204   -2.3423    3.0884 C.3       1 <0>        -0.1239
     17 C15        -7.1430   -3.3327    1.9273 C.3       1 <0>         0.1522
     18 C16        -5.8772   -4.1381    1.7839 C.2       1 <0>         0.5247
     19 O2         -5.7688   -5.1600    2.4280 O.2       1 <0>        -0.5474
     20 N2         -7.2865   -2.5136    0.7038 N.pl3     1 <0>        -0.9845
     21 S1         -8.6759   -2.4901   -0.1969 S.o2      1 <0>         2.7178
     22 O3         -9.7313   -2.8727    0.6744 O.2       1 <0>        -1.0368
     23 O4         -8.6808   -1.2574   -0.9039 O.2       1 <0>        -1.0385
     24 N3         -8.5430   -3.6870   -1.3335 N.2       1 <0>        -1.0993
     25 C17        -9.5804   -3.9034   -2.2455 C.ar      1 <0>         0.3025
     26 C18       -10.7205   -3.1112   -2.2025 C.ar      1 <0>        -0.2501
     27 C19       -11.7450   -3.3258   -3.1040 C.ar      1 <0>        -0.0655
     28 C20       -11.6371   -4.3301   -4.0503 C.ar      1 <0>        -0.0525
     29 C21       -10.5005   -5.1231   -4.0957 C.ar      1 <0>         0.1100
     30 C22        -9.4698   -4.9067   -3.1988 C.ar      1 <0>        -0.1945
     31 F1        -10.3972   -6.1032   -5.0198 F         1 <0>        -0.1444
     32 F2        -12.6406   -4.5383   -4.9306 F         1 <0>        -0.1536
     33 H1          1.0053    1.8021    0.0021 H         1 <0>         0.0983
     34 H2         -0.5445    1.7859   -0.8732 H         1 <0>         0.0564
     35 H3         -0.5275    1.7763    0.9067 H         1 <0>         0.0554
     36 H4         -2.3300    1.1822    0.0214 H         1 <0>         0.1298
     37 H5         -4.5135    0.0364    0.0342 H         1 <0>         0.1514
     38 H6         -0.3418   -2.6051   -0.0096 H         1 <0>         0.1319
     39 H7         -2.9221   -4.4983   -0.9633 H         1 <0>         0.0905
     40 H8         -1.6364   -4.6036    0.2625 H         1 <0>         0.0924
     41 H9         -3.8797   -5.6323    0.9116 H         1 <0>         0.0797
     42 H10        -3.1990   -4.4626    2.0583 H         1 <0>         0.0660
     43 H11        -5.1173   -3.0790   -0.9635 H         1 <0>         0.0929
     44 H12        -6.3151   -1.1140   -0.5301 H         1 <0>         0.1148
     45 H13        -4.7918   -0.3020    1.2985 H         1 <0>         0.1081
     46 H14        -6.5197   -0.0416    1.6206 H         1 <0>         0.0732
     47 H15        -4.7958   -2.2977    2.7272 H         1 <0>         0.0677
     48 H16        -5.4153   -0.8992    3.6346 H         1 <0>         0.0657
     49 H17        -6.8391   -2.8876    4.0286 H         1 <0>         0.0785
     50 H18        -7.7519   -1.6393    3.1388 H         1 <0>         0.0818
     51 H19        -8.0098   -3.9704    2.1006 H         1 <0>         0.1365
     52 H20       -10.8062   -2.3277   -1.4641 H         1 <0>         0.1098
     53 H21       -12.6312   -2.7095   -3.0701 H         1 <0>         0.1265
     54 H22        -8.5823   -5.5209   -3.2368 H         1 <0>         0.1341
@<TRIPOS>BOND
     1    1    2 1
     2    1   33 1
     3    1   34 1
     4    1   35 1
     5    2    3 1
     6    3    8 ar
     7    3    4 ar
     8    4    5 ar
     9    4   36 1
    10    5    6 ar
    11    5   37 1
    12    6   12 1
    13    6    7 ar
    14    7    8 ar
    15    7    9 1
    16    8   38 1
    17    9   10 1
    18    9   39 1
    19    9   40 1
    20   10   11 1
    21   10   41 1
    22   10   42 1
    23   11   18 am
    24   11   12 1
    25   12   13 1
    26   12   43 1
    27   13   20 1
    28   13   14 1
    29   13   44 1
    30   14   15 1
    31   14   45 1
    32   14   46 1
    33   15   16 1
    34   15   47 1
    35   15   48 1
    36   16   17 1
    37   16   49 1
    38   16   50 1
    39   17   18 1
    40   17   20 1
    41   17   51 1
    42   18   19 2
    43   20   21 1
    44   21   22 2
    45   21   23 2
    46   21   24 1
    47   24   25 1
    48   25   30 ar
    49   25   26 ar
    50   26   27 ar
    51   26   52 1
    52   27   28 ar
    53   27   53 1
    54   28   29 ar
    55   28   32 1
    56   29   30 ar
    57   29   31 1
    58   30   54 1
@<TRIPOS>MOLECULE
CHEMBL202123__6
   55    59     0     0     0
SMALL
USER_CHARGES

@<TRIPOS>ATOM
      1 C1          0.3547   -0.3053   -0.3829 C.3       1 <0>         0.0260
      2 O1          0.0830   -1.7012   -0.2427 O.3       1 <0>        -0.3165
      3 C2         -1.2225   -2.0712   -0.1681 C.ar      1 <0>         0.1370
      4 C3         -2.2230   -1.1120   -0.2342 C.ar      1 <0>        -0.2012
      5 C4         -3.5447   -1.4987   -0.1628 C.ar      1 <0>        -0.0633
      6 C5         -3.8811   -2.8376   -0.0215 C.ar      1 <0>        -0.1426
      7 C6         -2.8900   -3.7936    0.0538 C.ar      1 <0>        -0.0242
      8 C7         -1.5593   -3.4069   -0.0317 C.ar      1 <0>        -0.1541
      9 C8         -3.1842   -5.2590    0.2368 C.3       1 <0>        -0.1010
     10 C9         -4.6248   -5.5858   -0.1541 C.3       1 <0>         0.1052
     11 N1         -5.5001   -4.5777    0.4811 N.am      1 <0>        -0.5930
     12 C10        -5.3396   -3.2037    0.0371 C.3       1 <0>         0.1900
     13 C11        -6.1260   -2.1883    0.8466 C.3       1 <0>         0.1425
     14 C12        -7.4771   -1.9293    0.1666 C.3       1 <0>        -0.1330
     15 C13        -8.2766   -3.2337    0.1285 C.3       1 <0>        -0.1260
     16 C14        -8.5084   -3.7408    1.5532 C.3       1 <0>        -0.1243
     17 C15        -7.1565   -3.9857    2.2330 C.3       1 <0>         0.1403
     18 C16        -6.3701   -4.9833    1.4169 C.2       1 <0>         0.5255
     19 O2         -6.5281   -6.1700    1.6109 O.2       1 <0>        -0.5300
     20 N2         -6.3912   -2.7201    2.1952 N.pl3     1 <0>        -0.9963
     21 S1         -5.8706   -1.9561    3.5691 S.o2      1 <0>         2.7817
     22 O3         -5.6692   -2.9687    4.5455 O.2       1 <0>        -0.9546
     23 O4         -4.8376   -1.0649    3.1716 O.2       1 <0>        -0.9514
     24 N3         -7.1224   -1.0176    4.1117 N.pl3     1 <0>        -1.0648
     25 C17        -7.6229    0.0122    3.3094 C.ar      1 <0>         0.1680
     26 C18        -6.7494    0.8810    2.6680 C.ar      1 <0>        -0.1381
     27 C19        -7.2449    1.8982    1.8755 C.ar      1 <0>        -0.0976
     28 C20        -8.6115    2.0533    1.7200 C.ar      1 <0>         0.0615
     29 C21        -9.4863    1.1880    2.3593 C.ar      1 <0>         0.0909
     30 C22        -8.9935    0.1642    3.1483 C.ar      1 <0>        -0.1396
     31 F1        -10.8199    1.3411    2.2068 F         1 <0>        -0.1214
     32 F2         -9.0937    3.0492    0.9448 F         1 <0>        -0.1238
     33 H1          1.4322   -0.1479   -0.4305 H         1 <0>         0.1016
     34 H2         -0.1073    0.0646   -1.2982 H         1 <0>         0.0568
     35 H3         -0.0536    0.2321    0.4730 H         1 <0>         0.0575
     36 H4         -1.9679   -0.0680   -0.3407 H         1 <0>         0.1326
     37 H5         -4.3244   -0.7534   -0.2169 H         1 <0>         0.1288
     38 H6         -0.7804   -4.1537    0.0136 H         1 <0>         0.1322
     39 H7         -2.5043   -5.8405   -0.3859 H         1 <0>         0.0936
     40 H8         -3.0279   -5.5271    1.2817 H         1 <0>         0.0853
     41 H9         -4.7334   -5.5398   -1.2377 H         1 <0>         0.0804
     42 H10        -4.8880   -6.5816    0.2027 H         1 <0>         0.1079
     43 H11        -5.7211   -3.1512   -0.9826 H         1 <0>         0.0920
     44 H12        -5.5581   -1.2611    0.9231 H         1 <0>         0.1244
     45 H13        -8.0310   -1.1787    0.7305 H         1 <0>         0.0780
     46 H14        -7.3111   -1.5737   -0.8503 H         1 <0>         0.0864
     47 H15        -9.2378   -3.0556   -0.3536 H         1 <0>         0.0783
     48 H16        -7.7218   -3.9824   -0.4369 H         1 <0>         0.0696
     49 H17        -9.0693   -2.9957    2.1175 H         1 <0>         0.0836
     50 H18        -9.0727   -4.6727    1.5200 H         1 <0>         0.0894
     51 H19        -7.2939   -4.3407    3.2544 H         1 <0>         0.1381
     52 H20        -7.5084   -1.1824    4.9862 H         1 <0>         0.4306
     53 H21        -5.6829    0.7615    2.7891 H         1 <0>         0.1712
     54 H22        -6.5652    2.5734    1.3770 H         1 <0>         0.1564
     55 H23        -9.6743   -0.5130    3.6427 H         1 <0>         0.1533
@<TRIPOS>BOND
     1    1    2 1
     2    1   33 1
     3    1   34 1
     4    1   35 1
     5    2    3 1
     6    3    8 ar
     7    3    4 ar
     8    4    5 ar
     9    4   36 1
    10    5    6 ar
    11    5   37 1
    12    6   12 1
    13    6    7 ar
    14    7    8 ar
    15    7    9 1
    16    8   38 1
    17    9   10 1
    18    9   39 1
    19    9   40 1
    20   10   11 1
    21   10   41 1
    22   10   42 1
    23   11   18 am
    24   11   12 1
    25   12   13 1
    26   12   43 1
    27   13   20 1
    28   13   14 1
    29   13   44 1
    30   14   15 1
    31   14   45 1
    32   14   46 1
    33   15   16 1
    34   15   47 1
    35   15   48 1
    36   16   17 1
    37   16   49 1
    38   16   50 1
    39   17   18 1
    40   17   20 1
    41   17   51 1
    42   18   19 2
    43   20   21 1
    44   21   22 2
    45   21   23 2
    46   21   24 1
    47   24   25 1
    48   24   52 1
    49   25   30 ar
    50   25   26 ar
    51   26   27 ar
    52   26   53 1
    53   27   28 ar
    54   27   54 1
    55   28   29 ar
    56   28   32 1
    57   29   30 ar
    58   29   31 1
    59   30   55 1
@<TRIPOS>MOLECULE
CHEMBL202123__7
   54    58     0     0     0
SMALL
USER_CHARGES

@<TRIPOS>ATOM
      1 C1         -0.0173    1.4248    0.0099 C.3       1 <0>         0.0269
      2 O1          0.0021   -0.0041    0.0020 O.3       1 <0>        -0.3196
      3 C2         -1.2003   -0.6375    0.0101 C.ar      1 <0>         0.1294
      4 C3         -2.3757    0.0999    0.0195 C.ar      1 <0>        -0.2002
      5 C4         -3.5904   -0.5527    0.0225 C.ar      1 <0>        -0.0565
      6 C5         -3.6461   -1.9393    0.0200 C.ar      1 <0>        -0.1305
      7 C6         -2.4805   -2.6764    0.0198 C.ar      1 <0>        -0.0293
      8 C7         -1.2569   -2.0204    0.0032 C.ar      1 <0>        -0.1563
      9 C8         -2.4690   -4.1819    0.0470 C.3       1 <0>        -0.0985
     10 C9         -3.8120   -4.7525   -0.4065 C.3       1 <0>         0.1050
     11 N1         -4.8754   -4.0147    0.3082 N.am      1 <0>        -0.5940
     12 C10        -4.9990   -2.5983    0.0093 C.3       1 <0>         0.1881
     13 C11        -5.9770   -1.8534    0.9000 C.3       1 <0>         0.1501
     14 C12        -7.3520   -1.8055    0.2203 C.3       1 <0>        -0.1312
     15 C13        -7.8678   -3.2340    0.0328 C.3       1 <0>        -0.1206
     16 C14        -7.9921   -3.9225    1.3933 C.3       1 <0>        -0.1231
     17 C15        -6.6193   -3.9566    2.0744 C.3       1 <0>         0.1469
     18 C16        -5.6448   -4.6834    1.1789 C.2       1 <0>         0.5271
     19 O2         -5.5570   -5.8910    1.2481 O.2       1 <0>        -0.5450
     20 N2         -6.1288   -2.5649    2.1817 N.pl3     1 <0>        -0.9815
     21 S1         -5.7765   -1.8575    3.6370 S.o2      1 <0>         2.7180
     22 O3         -5.4911   -2.9139    4.5435 O.2       1 <0>        -1.0400
     23 O4         -4.8506   -0.8138    3.3676 O.2       1 <0>        -1.0340
     24 N3         -7.1635   -1.1319    4.1773 N.2       1 <0>        -1.0986
     25 C17        -7.1655   -0.4484    5.3969 C.ar      1 <0>         0.3023
     26 C18        -6.0031   -0.3726    6.1533 C.ar      1 <0>        -0.2500
     27 C19        -6.0060    0.3030    7.3582 C.ar      1 <0>        -0.0657
     28 C20        -7.1667    0.9044    7.8134 C.ar      1 <0>        -0.0530
     29 C21        -8.3290    0.8303    7.0609 C.ar      1 <0>         0.1098
     30 C22        -8.3280    0.1603    5.8507 C.ar      1 <0>        -0.1952
     31 F1         -9.4610    1.4175    7.5069 F         1 <0>        -0.1445
     32 F2         -7.1671    1.5642    8.9923 F         1 <0>        -0.1536
     33 H1          1.0053    1.8021    0.0021 H         1 <0>         0.0978
     34 H2         -0.5445    1.7859   -0.8732 H         1 <0>         0.0547
     35 H3         -0.5275    1.7763    0.9067 H         1 <0>         0.0577
     36 H4         -2.3394    1.1792    0.0249 H         1 <0>         0.1303
     37 H5         -4.5060    0.0200    0.0270 H         1 <0>         0.1307
     38 H6         -0.3418   -2.5939   -0.0103 H         1 <0>         0.1285
     39 H7         -1.6841   -4.5453   -0.6163 H         1 <0>         0.0887
     40 H8         -2.2620   -4.5194    1.0625 H         1 <0>         0.0833
     41 H9         -3.9269   -4.6174   -1.4820 H         1 <0>         0.0756
     42 H10        -3.8663   -5.8124   -0.1582 H         1 <0>         0.1043
     43 H11        -5.3824   -2.5191   -1.0080 H         1 <0>         0.0847
     44 H12        -5.6107   -0.8431    1.0824 H         1 <0>         0.1177
     45 H13        -8.0480   -1.2457    0.8450 H         1 <0>         0.0877
     46 H14        -7.2614   -1.3202   -0.7515 H         1 <0>         0.0732
     47 H15        -8.8448   -3.2061   -0.4498 H         1 <0>         0.0700
     48 H16        -7.1712   -3.7916   -0.5933 H         1 <0>         0.0604
     49 H17        -8.6939   -3.3696    2.0177 H         1 <0>         0.0913
     50 H18        -8.3540   -4.9411    1.2536 H         1 <0>         0.0767
     51 H19        -6.6819   -4.4359    3.0513 H         1 <0>         0.1341
     52 H20        -5.0970   -0.8420    5.7997 H         1 <0>         0.1091
     53 H21        -5.1019    0.3616    7.9460 H         1 <0>         0.1260
     54 H22        -9.2317    0.1063    5.2619 H         1 <0>         0.1347
@<TRIPOS>BOND
     1    1    2 1
     2    1   33 1
     3    1   34 1
     4    1   35 1
     5    2    3 1
     6    3    8 ar
     7    3    4 ar
     8    4    5 ar
     9    4   36 1
    10    5    6 ar
    11    5   37 1
    12    6   12 1
    13    6    7 ar
    14    7    8 ar
    15    7    9 1
    16    8   38 1
    17    9   10 1
    18    9   39 1
    19    9   40 1
    20   10   11 1
    21   10   41 1
    22   10   42 1
    23   11   18 am
    24   11   12 1
    25   12   13 1
    26   12   43 1
    27   13   20 1
    28   13   14 1
    29   13   44 1
    30   14   15 1
    31   14   45 1
    32   14   46 1
    33   15   16 1
    34   15   47 1
    35   15   48 1
    36   16   17 1
    37   16   49 1
    38   16   50 1
    39   17   18 1
    40   17   20 1
    41   17   51 1
    42   18   19 2
    43   20   21 1
    44   21   22 2
    45   21   23 2
    46   21   24 1
    47   24   25 1
    48   25   30 ar
    49   25   26 ar
    50   26   27 ar
    51   26   52 1
    52   27   28 ar
    53   27   53 1
    54   28   29 ar
    55   28   32 1
    56   29   30 ar
    57   29   31 1
    58   30   54 1
@<TRIPOS>MOLECULE
CHEMBL148621
   55    57     0     0     0
SMALL
USER_CHARGES

@<TRIPOS>ATOM
      1 C1         -0.0167    1.3776    0.0096 C.ar      1 <0>        -0.1703
      2 C2          1.1849    2.0698    0.0019 C.ar      1 <0>        -0.0726
      3 C3          2.3651    1.3426   -0.0133 C.ar      1 <0>        -0.1340
      4 C4          2.3054   -0.0383   -0.0202 C.ar      1 <0>         0.1035
      5 N1          1.1443   -0.6632   -0.0129 N.ar      1 <0>        -0.4829
      6 C5          0.0021   -0.0041    0.0020 C.ar      1 <0>         0.0940
      7 C6          3.6964    2.0488   -0.0227 C.3       1 <0>        -0.0739
      8 C7          4.1610    2.2805    1.4165 C.3       1 <0>        -0.1123
      9 C8          5.5125    2.9975    1.4069 C.3       1 <0>         0.0691
     10 O1          5.9465    3.2139    2.7512 O.3       1 <0>        -0.3506
     11 C9          7.1237    3.8366    2.9187 C.2       1 <0>         0.4576
     12 O2          7.7646    4.1864    1.9560 O.2       1 <0>        -0.4719
     13 C10         7.6461    4.0995    4.3076 C.3       1 <0>         0.1610
     14 C11         6.6765    5.0306    5.0656 C.3       1 <0>        -0.1198
     15 C12         7.6340    5.9498    5.8690 C.3       1 <0>        -0.1285
     16 C13         8.8171    6.1057    4.8812 C.3       1 <0>         0.0801
     17 N2          8.9429    4.7881    4.2320 N.pl3     1 <0>        -0.5720
     18 C14        10.0616    4.2961    3.6638 C.2       1 <0>         0.5891
     19 S1         10.0454    2.7408    2.9484 S.2       1 <0>        -0.6231
     20 N3         11.1930    5.0284    3.6588 N.pl3     1 <0>        -0.6789
     21 C15        12.4091    4.4935    3.0412 C.3       1 <0>         0.1451
     22 C16        13.1531    3.6198    4.0530 C.3       1 <0>        -0.1267
     23 C17        14.4231    3.0612    3.4080 C.3       1 <0>        -0.1149
     24 C18        15.3250    4.2178    2.9723 C.3       1 <0>        -0.1232
     25 C19        14.5809    5.0915    1.9605 C.3       1 <0>        -0.1143
     26 C20        13.3109    5.6501    2.6055 C.3       1 <0>        -0.1268
     27 H1         -0.9552    1.9117    0.0259 H         1 <0>         0.1357
     28 H2          1.2009    3.1496    0.0072 H         1 <0>         0.1339
     29 H3          3.2203   -0.6121   -0.0320 H         1 <0>         0.1555
     30 H4         -0.9294   -0.5505    0.0083 H         1 <0>         0.1559
     31 H5          4.4293    1.4355   -0.5468 H         1 <0>         0.0822
     32 H6          3.5953    3.0079   -0.5308 H         1 <0>         0.0788
     33 H7          3.4280    2.8939    1.9406 H         1 <0>         0.0751
     34 H8          4.2620    1.3215    1.9245 H         1 <0>         0.0786
     35 H9          6.2455    2.3842    0.8828 H         1 <0>         0.0723
     36 H10         5.4115    3.9566    0.8989 H         1 <0>         0.0657
     37 H11         7.7570    3.1583    4.8461 H         1 <0>         0.1297
     38 H12         6.0773    5.6145    4.3669 H         1 <0>         0.0869
     39 H13         6.0378    4.4575    5.7377 H         1 <0>         0.1077
     40 H14         7.1684    6.9133    6.0761 H         1 <0>         0.0985
     41 H15         7.9564    5.4670    6.7916 H         1 <0>         0.0883
     42 H16         8.5941    6.8738    4.1405 H         1 <0>         0.0828
     43 H17         9.7317    6.3518    5.4205 H         1 <0>         0.0854
     44 H18        11.2022    5.9096    4.0641 H         1 <0>         0.3943
     45 H19        12.1412    3.8941    2.1711 H         1 <0>         0.1164
     46 H20        13.4210    4.2193    4.9231 H         1 <0>         0.0579
     47 H21        12.5106    2.7958    4.3634 H         1 <0>         0.0799
     48 H22        14.9532    2.4388    4.1288 H         1 <0>         0.0666
     49 H23        14.1552    2.4617    2.5379 H         1 <0>         0.0693
     50 H24        15.5928    4.8173    3.8424 H         1 <0>         0.0614
     51 H25        16.2297    3.8199    2.5128 H         1 <0>         0.0659
     52 H26        15.2234    5.9155    1.6501 H         1 <0>         0.0688
     53 H27        14.3130    4.4921    1.0904 H         1 <0>         0.0689
     54 H28        12.7808    6.2726    1.8846 H         1 <0>         0.0687
     55 H29        13.5788    6.2496    3.4756 H         1 <0>         0.0659
@<TRIPOS>BOND
     1    1    6 ar
     2    1    2 ar
     3    1   27 1
     4    2    3 ar
     5    2   28 1
     6    3    4 ar
     7    3    7 1
     8    4    5 ar
     9    4   29 1
    10    5    6 ar
    11    6   30 1
    12    7    8 1
    13    7   31 1
    14    7   32 1
    15    8    9 1
    16    8   33 1
    17    8   34 1
    18    9   10 1
    19    9   35 1
    20    9   36 1
    21   10   11 1
    22   11   12 2
    23   11   13 1
    24   13   17 1
    25   13   14 1
    26   13   37 1
    27   14   15 1
    28   14   38 1
    29   14   39 1
    30   15   16 1
    31   15   40 1
    32   15   41 1
    33   16   17 1
    34   16   42 1
    35   16   43 1
    36   17   18 1
    37   18   19 2
    38   18   20 1
    39   20   21 1
    40   20   44 1
    41   21   26 1
    42   21   22 1
    43   21   45 1
    44   22   23 1
    45   22   46 1
    46   22   47 1
    47   23   24 1
    48   23   48 1
    49   23   49 1
    50   24   25 1
    51   24   50 1
    52   24   51 1
    53   25   26 1
    54   25   52 1
    55   25   53 1
    56   26   54 1
    57   26   55 1
@<TRIPOS>MOLECULE
CHEMBL148621__1
   55    57     0     0     0
SMALL
USER_CHARGES

@<TRIPOS>ATOM
      1 C1         -0.0167    1.3776    0.0096 C.ar      1 <0>        -0.1694
      2 C2          1.1849    2.0698    0.0019 C.ar      1 <0>        -0.0718
      3 C3          2.3651    1.3426   -0.0133 C.ar      1 <0>        -0.1339
      4 C4          2.3054   -0.0383   -0.0202 C.ar      1 <0>         0.1022
      5 N1          1.1443   -0.6632   -0.0129 N.ar      1 <0>        -0.4836
      6 C5          0.0021   -0.0041    0.0020 C.ar      1 <0>         0.0938
      7 C6          3.6964    2.0488   -0.0227 C.3       1 <0>        -0.0740
      8 C7          4.1610    2.2805    1.4165 C.3       1 <0>        -0.1122
      9 C8          5.5125    2.9975    1.4069 C.3       1 <0>         0.0691
     10 O1          5.9465    3.2139    2.7512 O.3       1 <0>        -0.3506
     11 C9          7.1237    3.8366    2.9187 C.2       1 <0>         0.4576
     12 O2          7.7646    4.1864    1.9560 O.2       1 <0>        -0.4718
     13 C10         7.6461    4.0995    4.3076 C.3       1 <0>         0.1610
     14 C11         7.8794    2.7626    5.0424 C.3       1 <0>        -0.1199
     15 C12         9.1842    3.0271    5.8391 C.3       1 <0>        -0.1285
     16 C13         9.9686    3.9347    4.8590 C.3       1 <0>         0.0801
     17 N2          8.9429    4.7881    4.2320 N.pl3     1 <0>        -0.5719
     18 C14         9.1584    5.9988    3.6805 C.2       1 <0>         0.5894
     19 S1          7.8560    6.8685    2.9889 S.2       1 <0>        -0.6239
     20 N3         10.3993    6.5249    3.6735 N.pl3     1 <0>        -0.6789
     21 C15        10.6335    7.8410    3.0740 C.3       1 <0>         0.1451
     22 C16        10.3357    8.9314    4.1051 C.3       1 <0>        -0.1267
     23 C17        10.5804   10.3058    3.4790 C.3       1 <0>        -0.1148
     24 C18        12.0402   10.4105    3.0330 C.3       1 <0>        -0.1233
     25 C19        12.3380    9.3201    2.0019 C.3       1 <0>        -0.1143
     26 C20        12.0933    7.9457    2.6280 C.3       1 <0>        -0.1268
     27 H1         -0.9552    1.9117    0.0259 H         1 <0>         0.1362
     28 H2          1.2009    3.1496    0.0072 H         1 <0>         0.1350
     29 H3          3.2203   -0.6121   -0.0320 H         1 <0>         0.1544
     30 H4         -0.9294   -0.5505    0.0083 H         1 <0>         0.1560
     31 H5          4.4293    1.4355   -0.5468 H         1 <0>         0.0808
     32 H6          3.5953    3.0079   -0.5308 H         1 <0>         0.0803
     33 H7          3.4280    2.8939    1.9406 H         1 <0>         0.0771
     34 H8          4.2620    1.3215    1.9245 H         1 <0>         0.0766
     35 H9          6.2455    2.3842    0.8828 H         1 <0>         0.0665
     36 H10         5.4115    3.9566    0.8989 H         1 <0>         0.0715
     37 H11         6.9337    4.7105    4.8620 H         1 <0>         0.1295
     38 H12         7.0524    2.5446    5.7181 H         1 <0>         0.1077
     39 H13         8.0207    1.9503    4.3295 H         1 <0>         0.0872
     40 H14         8.9732    3.5500    6.7720 H         1 <0>         0.0882
     41 H15         9.7224    2.0980    6.0270 H         1 <0>         0.0986
     42 H16        10.6899    4.5453    5.4021 H         1 <0>         0.0854
     43 H17        10.4730    3.3312    4.1043 H         1 <0>         0.0830
     44 H18        11.1372    6.0322    4.0653 H         1 <0>         0.3944
     45 H19         9.9799    7.9687    2.2110 H         1 <0>         0.1163
     46 H20         9.2957    8.8568    4.4228 H         1 <0>         0.0799
     47 H21        10.9893    8.8037    4.9680 H         1 <0>         0.0579
     48 H22         9.9268   10.4335    2.6161 H         1 <0>         0.0692
     49 H23        10.3683   11.0827    4.2136 H         1 <0>         0.0665
     50 H24        12.2145   11.3897    2.5870 H         1 <0>         0.0659
     51 H25        12.6938   10.2828    3.8959 H         1 <0>         0.0614
     52 H26        11.6844    9.4478    1.1390 H         1 <0>         0.0688
     53 H27        13.3780    9.3947    1.6842 H         1 <0>         0.0689
     54 H28        12.7469    7.8180    3.4909 H         1 <0>         0.0660
     55 H29        12.3055    7.1688    1.8934 H         1 <0>         0.0688
@<TRIPOS>BOND
     1    1    6 ar
     2    1    2 ar
     3    1   27 1
     4    2    3 ar
     5    2   28 1
     6    3    4 ar
     7    3    7 1
     8    4    5 ar
     9    4   29 1
    10    5    6 ar
    11    6   30 1
    12    7    8 1
    13    7   31 1
    14    7   32 1
    15    8    9 1
    16    8   33 1
    17    8   34 1
    18    9   10 1
    19    9   35 1
    20    9   36 1
    21   10   11 1
    22   11   12 2
    23   11   13 1
    24   13   17 1
    25   13   14 1
    26   13   37 1
    27   14   15 1
    28   14   38 1
    29   14   39 1
    30   15   16 1
    31   15   40 1
    32   15   41 1
    33   16   17 1
    34   16   42 1
    35   16   43 1
    36   17   18 1
    37   18   19 2
    38   18   20 1
    39   20   21 1
    40   20   44 1
    41   21   26 1
    42   21   22 1
    43   21   45 1
    44   22   23 1
    45   22   46 1
    46   22   47 1
    47   23   24 1
    48   23   48 1
    49   23   49 1
    50   24   25 1
    51   24   50 1
    52   24   51 1
    53   25   26 1
    54   25   52 1
    55   25   53 1
    56   26   54 1
    57   26   55 1
@<TRIPOS>MOLECULE
CHEMBL326317
   55    56     0     0     0
SMALL
USER_CHARGES

@<TRIPOS>ATOM
      1 C1         -0.0187    1.5258    0.0104 C.3       1 <0>        -0.1555
      2 C2          0.0021   -0.0041    0.0020 C.3       1 <0>        -0.1077
      3 C3          0.7421   -0.5109    1.2415 C.3       1 <0>        -0.0879
      4 C4          2.1775    0.0187    1.2307 C.3       1 <0>        -0.1453
      5 C5          0.0259   -0.0175    2.5003 C.3       1 <0>        -0.1457
      6 C6          0.7625   -2.0177    1.2333 C.2       1 <0>         0.3676
      7 O1          0.2391   -2.6238    0.3291 O.2       1 <0>        -0.4154
      8 C7          1.4288   -2.7603    2.3411 C.2       1 <0>         0.4995
      9 O2          1.9547   -2.1513    3.2497 O.2       1 <0>        -0.4887
     10 N1          1.4470   -4.1079    2.3337 N.am      1 <0>        -0.5838
     11 C8          0.8554   -4.9695    1.2940 C.3       1 <0>         0.0951
     12 C9          1.6419   -6.3009    1.3875 C.3       1 <0>        -0.1359
     13 C10         1.8600   -6.4270    2.9184 C.3       1 <0>        -0.1247
     14 C11         2.0658   -4.9621    3.3579 C.3       1 <0>         0.1147
     15 H1          1.5835   -4.7948    4.3210 H         1 <0>         0.1065
     16 C12         3.5381   -4.6567    3.4589 C.2       1 <0>         0.5084
     17 O3          4.0315   -3.8079    2.7469 O.2       1 <0>        -0.5149
     18 N2          4.3064   -5.3268    4.3405 N.am      1 <0>        -0.7316
     19 C13         5.7376   -5.0298    4.4386 C.3       1 <0>         0.1205
     20 C14         6.3718   -5.9234    5.5065 C.3       1 <0>        -0.1255
     21 C15         7.8666   -5.6133    5.6090 C.3       1 <0>        -0.0735
     22 C16         8.4912   -6.4934    6.6608 C.ar      1 <0>        -0.1350
     23 C17         8.5480   -6.0763    7.9821 C.ar      1 <0>        -0.0731
     24 C18         9.1318   -6.9189    8.9154 C.ar      1 <0>        -0.1696
     25 C19         9.6342   -8.1381    8.5009 C.ar      1 <0>         0.0939
     26 N3          9.5632   -8.5018    7.2355 N.ar      1 <0>        -0.4832
     27 C20         9.0095   -7.7287    6.3217 C.ar      1 <0>         0.1013
     28 H2          1.0039    1.9031    0.0027 H         1 <0>         0.0601
     29 H3         -0.5459    1.8868   -0.8726 H         1 <0>         0.0579
     30 H4         -0.5289    1.8773    0.9072 H         1 <0>         0.0598
     31 H5         -1.0205   -0.3814    0.0098 H         1 <0>         0.0684
     32 H6          0.5123   -0.3556   -0.8948 H         1 <0>         0.0685
     33 H7          2.1627    1.1086    1.2367 H         1 <0>         0.0738
     34 H8          2.7046   -0.3424    2.1137 H         1 <0>         0.0795
     35 H9          2.6876   -0.3328    0.3339 H         1 <0>         0.0556
     36 H10        -0.9967   -0.3948    2.5081 H         1 <0>         0.0556
     37 H11         0.5531   -0.3786    3.3834 H         1 <0>         0.0776
     38 H12         0.0111    1.0724    2.5063 H         1 <0>         0.0751
     39 H13        -0.2019   -5.1384    1.4977 H         1 <0>         0.0783
     40 H14         0.9859   -4.5202    0.3095 H         1 <0>         0.0981
     41 H15         1.0486   -7.1326    1.0075 H         1 <0>         0.0941
     42 H16         2.5941   -6.2299    0.8617 H         1 <0>         0.0790
     43 H17         0.9816   -6.8578    3.3989 H         1 <0>         0.0936
     44 H18         2.7487   -7.0203    3.1338 H         1 <0>         0.0893
     45 H19         3.9118   -6.0056    4.9099 H         1 <0>         0.4003
     46 H20         6.2147   -5.2185    3.4769 H         1 <0>         0.0694
     47 H21         5.8737   -3.9836    4.7127 H         1 <0>         0.0696
     48 H22         5.8948   -5.7348    6.4682 H         1 <0>         0.0718
     49 H23         6.2358   -6.9696    5.2324 H         1 <0>         0.0728
     50 H24         8.3436   -5.8019    4.6472 H         1 <0>         0.0813
     51 H25         8.0026   -4.5671    5.8831 H         1 <0>         0.0798
     52 H26         8.1474   -5.1177    8.2769 H         1 <0>         0.1341
     53 H27         9.1936   -6.6262    9.9531 H         1 <0>         0.1359
     54 H28        10.0906   -8.8002    9.2218 H         1 <0>         0.1560
     55 H29         8.9647   -8.0629    5.2957 H         1 <0>         0.1542
@<TRIPOS>BOND
     1    1    2 1
     2    1   28 1
     3    1   29 1
     4    1   30 1
     5    2    3 1
     6    2   31 1
     7    2   32 1
     8    3    4 1
     9    3    5 1
    10    3    6 1
    11    4   33 1
    12    4   34 1
    13    4   35 1
    14    5   36 1
    15    5   37 1
    16    5   38 1
    17    6    7 2
    18    6    8 1
    19    8    9 2
    20    8   10 am
    21   10   14 1
    22   10   11 1
    23   11   12 1
    24   11   39 1
    25   11   40 1
    26   12   13 1
    27   12   41 1
    28   12   42 1
    29   13   14 1
    30   13   43 1
    31   13   44 1
    32   14   15 1
    33   14   16 1
    34   16   17 2
    35   16   18 am
    36   18   19 1
    37   18   45 1
    38   19   20 1
    39   19   46 1
    40   19   47 1
    41   20   21 1
    42   20   48 1
    43   20   49 1
    44   21   22 1
    45   21   50 1
    46   21   51 1
    47   22   27 ar
    48   22   23 ar
    49   23   24 ar
    50   23   52 1
    51   24   25 ar
    52   24   53 1
    53   25   26 ar
    54   25   54 1
    55   26   27 ar
    56   27   55 1
@<TRIPOS>MOLECULE
CHEMBL118978
   69    71     0     0     0
SMALL
USER_CHARGES

@<TRIPOS>ATOM
      1 C1         -0.3688    1.5045   -0.7048 C.3       1 <0>        -0.1554
      2 C2         -0.3649   -0.0217   -0.5981 C.3       1 <0>        -0.1080
      3 C3         -1.7625   -0.5096   -0.2114 C.3       1 <0>        -0.0873
      4 C4         -2.1587    0.0949    1.1371 C.3       1 <0>        -0.1452
      5 C5         -2.7679   -0.0756   -1.2799 C.3       1 <0>        -0.1457
      6 C6         -1.7586   -2.0129   -0.1063 C.2       1 <0>         0.3663
      7 O1         -0.7426   -2.6305   -0.3189 O.2       1 <0>        -0.4108
      8 C7         -3.0088   -2.7378    0.2599 C.2       1 <0>         0.4684
      9 O2         -4.0600   -2.1356    0.3339 O.2       1 <0>        -0.4631
     10 N1         -2.9718   -4.0619    0.5089 N.am      1 <0>        -0.5801
     11 C8         -1.6874   -4.7629    0.6420 C.3       1 <0>         0.0798
     12 C9         -1.6755   -5.5218    1.9727 C.3       1 <0>        -0.1388
     13 C10        -2.9009   -6.4358    2.0451 C.3       1 <0>        -0.1199
     14 C11        -4.1747   -5.5899    1.9829 C.3       1 <0>        -0.1222
     15 C12        -4.2149   -4.8306    0.6584 C.3       1 <0>         0.1237
     16 H1         -4.3067   -5.5405   -0.1637 H         1 <0>         0.0900
     17 C13        -5.3935   -3.8914    0.6524 C.2       1 <0>         0.5321
     18 O3         -5.5927   -3.1624    1.6010 O.2       1 <0>        -0.5142
     19 N2         -6.2260   -3.8615   -0.4070 N.am      1 <0>        -0.7304
     20 C14        -7.3717   -2.9484   -0.4128 C.3       1 <0>         0.1267
     21 C15        -8.1481   -3.1127   -1.7209 C.3       1 <0>        -0.1241
     22 C16        -9.3446   -2.1591   -1.7269 C.3       1 <0>        -0.0030
     23 C17        -8.8520   -0.7350   -1.7318 C.ar      1 <0>        -0.0723
     24 C18        -9.5699    0.2470   -1.0753 C.ar      1 <0>        -0.1125
     25 C19        -9.1180    1.5534   -1.0798 C.ar      1 <0>        -0.1165
     26 C20        -7.9479    1.8777   -1.7405 C.ar      1 <0>        -0.1210
     27 C21        -7.2295    0.8956   -2.3963 C.ar      1 <0>        -0.1149
     28 C22        -7.6791   -0.4116   -2.3882 C.ar      1 <0>        -0.1114
     29 C23       -10.1780   -2.4067   -2.9578 C.ar      1 <0>        -0.0717
     30 C24        -9.5946   -2.3526   -4.2099 C.ar      1 <0>        -0.1099
     31 C25       -10.3591   -2.5797   -5.3390 C.ar      1 <0>        -0.1183
     32 C26       -11.7069   -2.8612   -5.2161 C.ar      1 <0>        -0.1221
     33 C27       -12.2901   -2.9161   -3.9640 C.ar      1 <0>        -0.1177
     34 C28       -11.5247   -2.6933   -2.8346 C.ar      1 <0>        -0.1143
     35 H2          0.6269    1.8521   -0.9803 H         1 <0>         0.0581
     36 H3         -1.0851    1.8137   -1.4660 H         1 <0>         0.0597
     37 H4         -0.6511    1.9352    0.2559 H         1 <0>         0.0600
     38 H5         -0.0826   -0.4524   -1.5588 H         1 <0>         0.0684
     39 H6          0.3514   -0.3309    0.1631 H         1 <0>         0.0684
     40 H7         -2.1615    1.1822    1.0611 H         1 <0>         0.0756
     41 H8         -3.1544   -0.2527    1.4126 H         1 <0>         0.0771
     42 H9         -1.4424   -0.2143    1.8984 H         1 <0>         0.0556
     43 H10        -2.4857   -0.5063   -2.2406 H         1 <0>         0.0539
     44 H11        -3.7636   -0.4232   -1.0044 H         1 <0>         0.0824
     45 H12        -2.7707    1.0117   -1.3559 H         1 <0>         0.0736
     46 H13        -1.5684   -5.4672   -0.1813 H         1 <0>         0.0745
     47 H14        -0.8727   -4.0389    0.6270 H         1 <0>         0.1262
     48 H15        -0.7688   -6.1229    2.0406 H         1 <0>         0.0816
     49 H16        -1.7033   -4.8100    2.7977 H         1 <0>         0.0685
     50 H17        -2.8853   -7.1311    1.2058 H         1 <0>         0.0672
     51 H18        -2.8818   -6.9953    2.9804 H         1 <0>         0.0735
     52 H19        -5.0468   -6.2394    2.0580 H         1 <0>         0.0799
     53 H20        -4.1790   -4.8774    2.8078 H         1 <0>         0.0828
     54 H21        -6.0666   -4.4445   -1.1657 H         1 <0>         0.3939
     55 H22        -8.0247   -3.1795    0.4288 H         1 <0>         0.0633
     56 H23        -7.0179   -1.9210   -0.3268 H         1 <0>         0.0763
     57 H24        -7.4951   -2.8816   -2.5625 H         1 <0>         0.0744
     58 H25        -8.5019   -4.1401   -1.8069 H         1 <0>         0.0749
     59 H26        -9.9506   -2.3309   -0.8373 H         1 <0>         0.0903
     60 H27       -10.4841   -0.0063   -0.5591 H         1 <0>         0.1196
     61 H28        -9.6793    2.3208   -0.5674 H         1 <0>         0.1209
     62 H29        -7.5952    2.8985   -1.7447 H         1 <0>         0.1198
     63 H30        -6.3154    1.1490   -2.9128 H         1 <0>         0.1197
     64 H31        -7.1159   -1.1796   -2.8974 H         1 <0>         0.1193
     65 H32        -8.5416   -2.1327   -4.3059 H         1 <0>         0.1192
     66 H33        -9.9034   -2.5368   -6.3172 H         1 <0>         0.1211
     67 H34       -12.3043   -3.0379   -6.0983 H         1 <0>         0.1209
     68 H35       -13.3431   -3.1357   -3.8680 H         1 <0>         0.1220
     69 H36       -11.9796   -2.7399   -1.8562 H         1 <0>         0.1215
@<TRIPOS>BOND
     1    1    2 1
     2    1   35 1
     3    1   36 1
     4    1   37 1
     5    2    3 1
     6    2   38 1
     7    2   39 1
     8    3    4 1
     9    3    5 1
    10    3    6 1
    11    4   40 1
    12    4   41 1
    13    4   42 1
    14    5   43 1
    15    5   44 1
    16    5   45 1
    17    6    7 2
    18    6    8 1
    19    8    9 2
    20    8   10 am
    21   10   15 1
    22   10   11 1
    23   11   12 1
    24   11   46 1
    25   11   47 1
    26   12   13 1
    27   12   48 1
    28   12   49 1
    29   13   14 1
    30   13   50 1
    31   13   51 1
    32   14   15 1
    33   14   52 1
    34   14   53 1
    35   15   16 1
    36   15   17 1
    37   17   18 2
    38   17   19 am
    39   19   20 1
    40   19   54 1
    41   20   21 1
    42   20   55 1
    43   20   56 1
    44   21   22 1
    45   21   57 1
    46   21   58 1
    47   22   23 1
    48   22   29 1
    49   22   59 1
    50   23   28 ar
    51   23   24 ar
    52   24   25 ar
    53   24   60 1
    54   25   26 ar
    55   25   61 1
    56   26   27 ar
    57   26   62 1
    58   27   28 ar
    59   27   63 1
    60   28   64 1
    61   29   34 ar
    62   29   30 ar
    63   30   31 ar
    64   30   65 1
    65   31   32 ar
    66   31   66 1
    67   32   33 ar
    68   32   67 1
    69   33   34 ar
    70   33   68 1
    71   34   69 1
@<TRIPOS>MOLECULE
CHEMBL146919
   81    83     0     0     0
SMALL
USER_CHARGES

@<TRIPOS>ATOM
      1 C1          0.3707    0.7077    0.2663 C.3       1 <0>        -0.1473
      2 C2          0.1848   -0.8107    0.2948 C.3       1 <0>        -0.1417
      3 C3         -1.2970   -1.1465    0.1144 C.3       1 <0>         0.1051
      4 C4         -1.5002   -2.6552    0.2672 C.3       1 <0>        -0.0380
      5 C5         -2.9925   -2.9805    0.1769 C.3       1 <0>        -0.0986
      6 C6         -3.1854   -4.4982    0.1919 C.3       1 <0>        -0.0790
      7 C7         -4.6417   -4.8216   -0.0224 C.ar      1 <0>        -0.0764
      8 C8         -5.4925   -4.9296    1.0617 C.ar      1 <0>        -0.1157
      9 C9         -6.8283   -5.2262    0.8652 C.ar      1 <0>        -0.1167
     10 C10        -7.3133   -5.4145   -0.4155 C.ar      1 <0>        -0.1259
     11 C11        -6.4626   -5.3056   -1.4997 C.ar      1 <0>        -0.1184
     12 C12        -5.1278   -5.0047   -1.3034 C.ar      1 <0>        -0.1181
     13 C13        -0.9690   -3.1007    1.6052 C.ar      1 <0>        -0.1071
     14 C14        -1.5016   -2.5765    2.7685 C.ar      1 <0>        -0.0719
     15 C15        -1.0160   -2.9829    3.9963 C.ar      1 <0>        -0.1473
     16 C16         0.0065   -3.9182    4.0615 C.ar      1 <0>         0.1259
     17 C17         0.5389   -4.4431    2.8928 C.ar      1 <0>        -0.2055
     18 C18         0.0463   -4.0372    1.6676 C.ar      1 <0>        -0.0717
     19 O1          0.4862   -4.3193    5.2681 O.3       1 <0>        -0.3182
     20 C19         1.5394   -5.2851    5.2591 C.3       1 <0>         0.0271
     21 O2         -1.7231   -0.7378   -1.1869 O.3       1 <0>        -0.3459
     22 C20        -2.2011    0.5107   -1.3075 C.2       1 <0>         0.4778
     23 O3         -2.2560    1.2326   -0.3401 O.2       1 <0>        -0.4784
     24 C21        -2.6694    1.0119   -2.6493 C.3       1 <0>         0.1490
     25 C22        -1.9986    2.3539   -2.9588 C.3       1 <0>        -0.1238
     26 C23        -2.5812    2.9242   -4.2540 C.3       1 <0>        -0.1195
     27 C24        -4.0824    3.1638   -4.0779 C.3       1 <0>        -0.1388
     28 C25        -4.7769    1.8310   -3.7811 C.3       1 <0>         0.0722
     29 N1         -4.1255    1.2063   -2.6217 N.am      1 <0>        -0.5785
     30 C26        -4.8498    0.8189   -1.5532 C.2       1 <0>         0.4726
     31 O4         -4.2900    0.4223   -0.5521 O.2       1 <0>        -0.4728
     32 C27        -6.3388    0.8777   -1.6011 C.2       1 <0>         0.3694
     33 O5         -6.9001    1.1313   -2.6400 O.2       1 <0>        -0.4085
     34 C28        -7.1435    0.6205   -0.3531 C.3       1 <0>        -0.0864
     35 C29        -6.8456   -0.7880    0.1646 C.3       1 <0>        -0.1431
     36 C30        -6.7673    1.6474    0.7169 C.3       1 <0>        -0.1452
     37 C31        -8.6346    0.7412   -0.6739 C.3       1 <0>        -0.1077
     38 C32        -9.4516    0.4802    0.5931 C.3       1 <0>        -0.1552
     39 H1          1.4263    0.9470    0.3948 H         1 <0>         0.0523
     40 H2          0.0234    1.0984   -0.6902 H         1 <0>         0.0464
     41 H3         -0.2052    1.1595    1.0740 H         1 <0>         0.0626
     42 H4          0.7607   -1.2624   -0.5129 H         1 <0>         0.0683
     43 H5          0.5321   -1.2014    1.2512 H         1 <0>         0.0814
     44 H6         -1.8828   -0.6227    0.8697 H         1 <0>         0.0900
     45 H7         -0.9661   -3.1761   -0.5275 H         1 <0>         0.0868
     46 H8         -3.5125   -2.5398    1.0275 H         1 <0>         0.0670
     47 H9         -3.3981   -2.5718   -0.7485 H         1 <0>         0.0704
     48 H10        -2.5924   -4.9478   -0.6045 H         1 <0>         0.0701
     49 H11        -2.8627   -4.8961    1.1540 H         1 <0>         0.0732
     50 H12        -5.1136   -4.7825    2.0623 H         1 <0>         0.1192
     51 H13        -7.4929   -5.3113    1.7122 H         1 <0>         0.1197
     52 H14        -8.3567   -5.6469   -0.5691 H         1 <0>         0.1189
     53 H15        -6.8415   -5.4530   -2.5003 H         1 <0>         0.1190
     54 H16        -4.4639   -4.9160   -2.1507 H         1 <0>         0.1183
     55 H17        -2.2976   -1.8484    2.7172 H         1 <0>         0.1283
     56 H18        -1.4319   -2.5726    4.9047 H         1 <0>         0.1303
     57 H19         1.3350   -5.1713    2.9409 H         1 <0>         0.1277
     58 H20         0.4574   -4.4488    0.7577 H         1 <0>         0.1246
     59 H21         1.8283   -5.5172    6.2841 H         1 <0>         0.1005
     60 H22         1.1953   -6.1932    4.7641 H         1 <0>         0.0557
     61 H23         2.3978   -4.8815    4.7221 H         1 <0>         0.0556
     62 H24        -2.4122    0.2859   -3.4206 H         1 <0>         0.1050
     63 H25        -2.1819    3.0497   -2.1401 H         1 <0>         0.0840
     64 H26        -0.9252    2.2054   -3.0772 H         1 <0>         0.0833
     65 H27        -2.0881    3.8672   -4.4897 H         1 <0>         0.0762
     66 H28        -2.4193    2.2168   -5.0674 H         1 <0>         0.0701
     67 H29        -4.2462    3.8520   -3.2487 H         1 <0>         0.0690
     68 H30        -4.4923    3.5917   -4.9928 H         1 <0>         0.0837
     69 H31        -5.8287    2.0089   -3.5573 H         1 <0>         0.1351
     70 H32        -4.6913    1.1737   -4.6464 H         1 <0>         0.0768
     71 H33        -5.7833   -0.8740    0.3932 H         1 <0>         0.0811
     72 H34        -7.4277   -0.9740    1.0673 H         1 <0>         0.0732
     73 H35        -7.1136   -1.5196   -0.5977 H         1 <0>         0.0551
     74 H36        -6.9795    2.6509    0.3481 H         1 <0>         0.0557
     75 H37        -7.3493    1.4614    1.6195 H         1 <0>         0.0760
     76 H38        -5.7050    1.5614    0.9455 H         1 <0>         0.0767
     77 H39        -8.8468    1.7447   -1.0428 H         1 <0>         0.0682
     78 H40        -8.9026    0.0097   -1.4362 H         1 <0>         0.0688
     79 H41       -10.5139    0.5662    0.3646 H         1 <0>         0.0580
     80 H42        -9.2394   -0.5233    0.9619 H         1 <0>         0.0602
     81 H43        -9.1836    1.2117    1.3554 H         1 <0>         0.0597
@<TRIPOS>BOND
     1    1    2 1
     2    1   39 1
     3    1   40 1
     4    1   41 1
     5    2    3 1
     6    2   42 1
     7    2   43 1
     8    3    4 1
     9    3   21 1
    10    3   44 1
    11    4    5 1
    12    4   13 1
    13    4   45 1
    14    5    6 1
    15    5   46 1
    16    5   47 1
    17    6    7 1
    18    6   48 1
    19    6   49 1
    20    7   12 ar
    21    7    8 ar
    22    8    9 ar
    23    8   50 1
    24    9   10 ar
    25    9   51 1
    26   10   11 ar
    27   10   52 1
    28   11   12 ar
    29   11   53 1
    30   12   54 1
    31   13   18 ar
    32   13   14 ar
    33   14   15 ar
    34   14   55 1
    35   15   16 ar
    36   15   56 1
    37   16   17 ar
    38   16   19 1
    39   17   18 ar
    40   17   57 1
    41   18   58 1
    42   19   20 1
    43   20   59 1
    44   20   60 1
    45   20   61 1
    46   21   22 1
    47   22   23 2
    48   22   24 1
    49   24   29 1
    50   24   25 1
    51   24   62 1
    52   25   26 1
    53   25   63 1
    54   25   64 1
    55   26   27 1
    56   26   65 1
    57   26   66 1
    58   27   28 1
    59   27   67 1
    60   27   68 1
    61   28   29 1
    62   28   69 1
    63   28   70 1
    64   29   30 am
    65   30   31 2
    66   30   32 1
    67   32   33 2
    68   32   34 1
    69   34   35 1
    70   34   36 1
    71   34   37 1
    72   35   71 1
    73   35   72 1
    74   35   73 1
    75   36   74 1
    76   36   75 1
    77   36   76 1
    78   37   38 1
    79   37   77 1
    80   37   78 1
    81   38   79 1
    82   38   80 1
    83   38   81 1
@<TRIPOS>MOLECULE
CHEMBL146919__1
   81    83     0     0     0
SMALL
USER_CHARGES

@<TRIPOS>ATOM
      1 C1         -0.0922    2.4995   -0.9854 C.3       1 <0>        -0.1546
      2 C2         -0.1139    0.9908   -0.7320 C.3       1 <0>        -0.1206
      3 C3         -1.5574    0.5297   -0.5212 C.3       1 <0>         0.1065
      4 C4         -1.5694   -0.9533   -0.1450 C.3       1 <0>        -0.0383
      5 C5         -3.0012   -1.3865    0.1762 C.3       1 <0>        -0.1039
      6 C6         -3.0219   -2.8826    0.4956 C.3       1 <0>        -0.0775
      7 C7         -4.4461   -3.3350    0.6906 C.ar      1 <0>        -0.0791
      8 C8         -5.0200   -3.2888    1.9473 C.ar      1 <0>        -0.1176
      9 C9         -6.3264   -3.7038    2.1262 C.ar      1 <0>        -0.1181
     10 C10        -7.0591   -4.1645    1.0482 C.ar      1 <0>        -0.1264
     11 C11        -6.4854   -4.2097   -0.2087 C.ar      1 <0>        -0.1185
     12 C12        -5.1804   -3.7908   -0.3883 C.ar      1 <0>        -0.1184
     13 C13        -0.6955   -1.1721    1.0631 C.ar      1 <0>        -0.1043
     14 C14        -0.9866   -0.5277    2.2513 C.ar      1 <0>        -0.0737
     15 C15        -0.1868   -0.7262    3.3601 C.ar      1 <0>        -0.1475
     16 C16         0.9090   -1.5733    3.2807 C.ar      1 <0>         0.1252
     17 C17         1.1987   -2.2190    2.0875 C.ar      1 <0>        -0.2049
     18 C18         0.3928   -2.0212    0.9830 C.ar      1 <0>        -0.0708
     19 O1          1.6976   -1.7699    4.3699 O.3       1 <0>        -0.3184
     20 C19         2.8085   -2.6554    4.2152 C.3       1 <0>         0.0272
     21 O2         -2.2995    0.7211   -1.7273 O.3       1 <0>        -0.3138
     22 C20        -2.9152    1.9037   -1.8829 C.2       1 <0>         0.4786
     23 O3         -2.8271    2.7483   -1.0234 O.2       1 <0>        -0.5015
     24 C21        -3.7165    2.1778   -3.1294 C.3       1 <0>         0.1472
     25 C22        -4.4882    3.4909   -2.9654 C.3       1 <0>        -0.1187
     26 C23        -5.1882    3.8345   -4.2822 C.3       1 <0>        -0.1217
     27 C24        -4.1425    4.0232   -5.3836 C.3       1 <0>        -0.1334
     28 C25        -3.3668    2.7161   -5.5751 C.3       1 <0>         0.0589
     29 N1         -2.8108    2.3021   -4.2796 N.am      1 <0>        -0.5798
     30 C26        -1.4950    2.0413   -4.1489 C.2       1 <0>         0.4559
     31 O4         -1.0726    1.5508   -3.1223 O.2       1 <0>        -0.4495
     32 C27        -0.5583    2.3554   -5.2655 C.2       1 <0>         0.3697
     33 O5         -0.9481    2.9795   -6.2233 O.2       1 <0>        -0.4073
     34 C28         0.8749    1.8942   -5.1990 C.3       1 <0>        -0.0860
     35 C29         1.5498    2.5026   -3.9681 C.3       1 <0>        -0.1572
     36 C30         0.9154    0.3679   -5.1008 C.3       1 <0>        -0.1443
     37 C31         1.6144    2.3440   -6.4607 C.3       1 <0>        -0.1087
     38 C32         3.0694    1.8758   -6.3932 C.3       1 <0>        -0.1553
     39 H1          0.9362    2.8280   -1.1356 H         1 <0>         0.0437
     40 H2         -0.6798    2.7270   -1.8749 H         1 <0>         0.0767
     41 H3         -0.5176    3.0184   -0.1264 H         1 <0>         0.0474
     42 H4          0.3116    0.4719   -1.5910 H         1 <0>         0.0751
     43 H5          0.4737    0.7633    0.1575 H         1 <0>         0.0668
     44 H6         -2.0113    1.1117    0.2809 H         1 <0>         0.0757
     45 H7         -1.1899   -1.5429   -0.9795 H         1 <0>         0.0890
     46 H8         -3.3659   -0.8261    1.0370 H         1 <0>         0.0639
     47 H9         -3.6418   -1.1896   -0.6835 H         1 <0>         0.0703
     48 H10        -2.5745   -3.4365   -0.3297 H         1 <0>         0.0715
     49 H11        -2.4539   -3.0673    1.4074 H         1 <0>         0.0740
     50 H12        -4.4476   -2.9289    2.7895 H         1 <0>         0.1199
     51 H13        -6.7746   -3.6684    3.1082 H         1 <0>         0.1205
     52 H14        -8.0795   -4.4893    1.1881 H         1 <0>         0.1199
     53 H15        -7.0577   -4.5700   -1.0508 H         1 <0>         0.1204
     54 H16        -4.7334   -3.8226   -1.3709 H         1 <0>         0.1200
     55 H17        -1.8398    0.1316    2.3126 H         1 <0>         0.1262
     56 H18        -0.4142   -0.2221    4.2877 H         1 <0>         0.1297
     57 H19         2.0513   -2.8789    2.0232 H         1 <0>         0.1274
     58 H20         0.6153   -2.5270    0.0551 H         1 <0>         0.1245
     59 H21         3.3532   -2.7229    5.1570 H         1 <0>         0.1003
     60 H22         2.4482   -3.6444    3.9322 H         1 <0>         0.0556
     61 H23         3.4716   -2.2743    3.4386 H         1 <0>         0.0556
     62 H24        -4.4157    1.3596   -3.3016 H         1 <0>         0.1086
     63 H25        -5.2319    3.3797   -2.1763 H         1 <0>         0.0849
     64 H26        -3.7950    4.2900   -2.7026 H         1 <0>         0.0811
     65 H27        -5.8629    3.0238   -4.5571 H         1 <0>         0.0682
     66 H28        -5.7582    4.7557   -4.1610 H         1 <0>         0.0753
     67 H29        -4.6402    4.2908   -6.3158 H         1 <0>         0.0814
     68 H30        -3.4526    4.8172   -5.0981 H         1 <0>         0.0686
     69 H31        -4.0392    1.9434   -5.9479 H         1 <0>         0.0712
     70 H32        -2.5566    2.8730   -6.2871 H         1 <0>         0.1445
     71 H33         1.0230    2.1822   -3.0692 H         1 <0>         0.0917
     72 H34         2.5864    2.1690   -3.9200 H         1 <0>         0.0734
     73 H35         1.5209    3.5900   -4.0380 H         1 <0>         0.0541
     74 H36         0.4346   -0.0655   -5.9778 H         1 <0>         0.0562
     75 H37         1.9520    0.0344   -5.0528 H         1 <0>         0.0753
     76 H38         0.3886    0.0475   -4.2020 H         1 <0>         0.0775
     77 H39         1.1335    1.9106   -7.3376 H         1 <0>         0.0686
     78 H40         1.5855    3.4313   -6.5306 H         1 <0>         0.0684
     79 H41         3.5963    2.1961   -7.2920 H         1 <0>         0.0579
     80 H42         3.5503    2.3092   -5.5162 H         1 <0>         0.0598
     81 H43         3.0983    0.7884   -6.3232 H         1 <0>         0.0598
@<TRIPOS>BOND
     1    1    2 1
     2    1   39 1
     3    1   40 1
     4    1   41 1
     5    2    3 1
     6    2   42 1
     7    2   43 1
     8    3    4 1
     9    3   21 1
    10    3   44 1
    11    4    5 1
    12    4   13 1
    13    4   45 1
    14    5    6 1
    15    5   46 1
    16    5   47 1
    17    6    7 1
    18    6   48 1
    19    6   49 1
    20    7   12 ar
    21    7    8 ar
    22    8    9 ar
    23    8   50 1
    24    9   10 ar
    25    9   51 1
    26   10   11 ar
    27   10   52 1
    28   11   12 ar
    29   11   53 1
    30   12   54 1
    31   13   18 ar
    32   13   14 ar
    33   14   15 ar
    34   14   55 1
    35   15   16 ar
    36   15   56 1
    37   16   17 ar
    38   16   19 1
    39   17   18 ar
    40   17   57 1
    41   18   58 1
    42   19   20 1
    43   20   59 1
    44   20   60 1
    45   20   61 1
    46   21   22 1
    47   22   23 2
    48   22   24 1
    49   24   29 1
    50   24   25 1
    51   24   62 1
    52   25   26 1
    53   25   63 1
    54   25   64 1
    55   26   27 1
    56   26   65 1
    57   26   66 1
    58   27   28 1
    59   27   67 1
    60   27   68 1
    61   28   29 1
    62   28   69 1
    63   28   70 1
    64   29   30 am
    65   30   31 2
    66   30   32 1
    67   32   33 2
    68   32   34 1
    69   34   35 1
    70   34   36 1
    71   34   37 1
    72   35   71 1
    73   35   72 1
    74   35   73 1
    75   36   74 1
    76   36   75 1
    77   36   76 1
    78   37   38 1
    79   37   77 1
    80   37   78 1
    81   38   79 1
    82   38   80 1
    83   38   81 1
@<TRIPOS>MOLECULE
CHEMBL146919__2
   81    83     0     0     0
SMALL
USER_CHARGES

@<TRIPOS>ATOM
      1 C1          0.0191    1.2221   -0.0633 C.3       1 <0>        -0.1473
      2 C2         -0.0403   -0.3031   -0.1694 C.3       1 <0>        -0.1406
      3 C3         -1.5009   -0.7583   -0.1613 C.3       1 <0>         0.1052
      4 C4         -1.5585   -2.2871   -0.1417 C.3       1 <0>        -0.0395
      5 C5         -3.0192   -2.7424   -0.1336 C.3       1 <0>        -0.0991
      6 C6         -3.0782   -4.2644    0.0116 C.3       1 <0>        -0.0801
      7 C7         -4.5169   -4.7128    0.0196 C.ar      1 <0>        -0.0766
      8 C8         -5.2076   -4.7982    1.2140 C.ar      1 <0>        -0.1170
      9 C9         -6.5273   -5.2096    1.2213 C.ar      1 <0>        -0.1171
     10 C10        -7.1565   -5.5351    0.0342 C.ar      1 <0>        -0.1260
     11 C11        -6.4660   -5.4488   -1.1602 C.ar      1 <0>        -0.1183
     12 C12        -5.1476   -5.0333   -1.1680 C.ar      1 <0>        -0.1168
     13 C13        -0.8695   -2.8315   -1.3664 C.ar      1 <0>        -0.1080
     14 C14        -1.3284   -2.4907   -2.6254 C.ar      1 <0>        -0.0584
     15 C15        -0.6988   -2.9888   -3.7496 C.ar      1 <0>        -0.1539
     16 C16         0.3951   -3.8312   -3.6147 C.ar      1 <0>         0.1240
     17 C17         0.8540   -4.1713   -2.3504 C.ar      1 <0>        -0.2092
     18 C18         0.2241   -3.6664   -1.2293 C.ar      1 <0>        -0.0763
     19 O1          1.0160   -4.3228   -4.7191 O.3       1 <0>        -0.3195
     20 C19         2.1358   -5.1843   -4.5045 C.3       1 <0>         0.0277
     21 O2         -2.1580   -0.2719   -1.3334 O.3       1 <0>        -0.3398
     22 C20        -2.7455    0.9319   -1.2474 C.2       1 <0>         0.4748
     23 O3         -2.7033    1.5521   -0.2113 O.2       1 <0>        -0.4768
     24 C21        -3.4578    1.5099   -2.4430 C.3       1 <0>         0.1490
     25 C22        -2.9182    2.9140   -2.7330 C.3       1 <0>        -0.1238
     26 C23        -3.7387    3.5493   -3.8579 C.3       1 <0>        -0.1195
     27 C24        -5.1992    3.6744   -3.4182 C.3       1 <0>        -0.1387
     28 C25        -5.7647    2.2789   -3.1360 C.3       1 <0>         0.0727
     29 N1         -4.8965    1.6052   -2.1607 N.am      1 <0>        -0.5786
     30 C26        -5.4101    1.0845   -1.0287 C.2       1 <0>         0.4725
     31 O4         -4.6705    0.6434   -0.1735 O.2       1 <0>        -0.4724
     32 C27        -6.8869    1.0502   -0.8270 C.2       1 <0>         0.3687
     33 O5         -7.6274    1.3455   -1.7343 O.2       1 <0>        -0.4087
     34 C28        -7.4558    0.6472    0.5091 C.3       1 <0>        -0.0866
     35 C29        -7.0033   -0.7745    0.8481 C.3       1 <0>        -0.1431
     36 C30        -6.9577    1.6116    1.5874 C.3       1 <0>        -0.1449
     37 C31        -8.9838    0.6953    0.4483 C.3       1 <0>        -0.1079
     38 C32        -9.5613    0.2861    1.8047 C.3       1 <0>        -0.1552
     39 H1          1.0597    1.5464   -0.0690 H         1 <0>         0.0517
     40 H2         -0.5045    1.6659   -0.9100 H         1 <0>         0.0471
     41 H3         -0.4555    1.5405    0.8649 H         1 <0>         0.0621
     42 H4          0.4344   -0.6214   -1.0976 H         1 <0>         0.0726
     43 H5          0.4833   -0.7469    0.6773 H         1 <0>         0.0761
     44 H6         -1.9993   -0.3646    0.7245 H         1 <0>         0.0909
     45 H7         -1.0573   -2.6582    0.7523 H         1 <0>         0.0944
     46 H8         -3.5402   -2.2771    0.7031 H         1 <0>         0.0686
     47 H9         -3.4968   -2.4478   -1.0681 H         1 <0>         0.0697
     48 H10        -2.5572   -4.7297   -0.8252 H         1 <0>         0.0739
     49 H11        -2.6006   -4.5590    0.9461 H         1 <0>         0.0701
     50 H12        -4.7161   -4.5440    2.1414 H         1 <0>         0.1193
     51 H13        -7.0668   -5.2770    2.1545 H         1 <0>         0.1197
     52 H14        -8.1873   -5.8571    0.0400 H         1 <0>         0.1189
     53 H15        -6.9575   -5.7034   -2.0876 H         1 <0>         0.1191
     54 H16        -4.6093   -4.9623   -2.1016 H         1 <0>         0.1184
     55 H17        -2.1801   -1.8349   -2.7299 H         1 <0>         0.1366
     56 H18        -1.0581   -2.7228   -4.7328 H         1 <0>         0.1269
     57 H19         1.7054   -4.8270   -2.2427 H         1 <0>         0.1252
     58 H20         0.5836   -3.9273   -0.2449 H         1 <0>         0.1217
     59 H21         2.5370   -5.5049   -5.4658 H         1 <0>         0.0996
     60 H22         2.9058   -4.6479   -3.9500 H         1 <0>         0.0549
     61 H23         1.8186   -6.0571   -3.9338 H         1 <0>         0.0550
     62 H24        -3.2971    0.8683   -3.3094 H         1 <0>         0.1044
     63 H25        -2.9967    3.5266   -1.8348 H         1 <0>         0.0833
     64 H26        -1.8739    2.8466   -3.0379 H         1 <0>         0.0833
     65 H27        -3.3412    4.5389   -4.0830 H         1 <0>         0.0760
     66 H28        -3.6799    2.9234   -4.7483 H         1 <0>         0.0702
     67 H29        -5.2563    4.2798   -2.5135 H         1 <0>         0.0688
     68 H30        -5.7785    4.1482   -4.2107 H         1 <0>         0.0835
     69 H31        -6.7717    2.3682   -2.7284 H         1 <0>         0.1345
     70 H32        -5.7923    1.7020   -4.0604 H         1 <0>         0.0768
     71 H33        -5.9147   -0.8088    0.8914 H         1 <0>         0.0814
     72 H34        -7.4148   -1.0661    1.8144 H         1 <0>         0.0730
     73 H35        -7.3582   -1.4616    0.0799 H         1 <0>         0.0549
     74 H36        -7.2800    2.6245    1.3458 H         1 <0>         0.0555
     75 H37        -7.3691    1.3201    2.5537 H         1 <0>         0.0758
     76 H38        -5.8691    1.5774    1.6307 H         1 <0>         0.0767
     77 H39        -9.3061    1.7081    0.2067 H         1 <0>         0.0682
     78 H40        -9.3386    0.0082   -0.3199 H         1 <0>         0.0688
     79 H41       -10.6499    0.3203    1.7614 H         1 <0>         0.0580
     80 H42        -9.2390   -0.7268    2.0462 H         1 <0>         0.0601
     81 H43        -9.2065    0.9732    2.5729 H         1 <0>         0.0596
@<TRIPOS>BOND
     1    1    2 1
     2    1   39 1
     3    1   40 1
     4    1   41 1
     5    2    3 1
     6    2   42 1
     7    2   43 1
     8    3    4 1
     9    3   21 1
    10    3   44 1
    11    4    5 1
    12    4   13 1
    13    4   45 1
    14    5    6 1
    15    5   46 1
    16    5   47 1
    17    6    7 1
    18    6   48 1
    19    6   49 1
    20    7   12 ar
    21    7    8 ar
    22    8    9 ar
    23    8   50 1
    24    9   10 ar
    25    9   51 1
    26   10   11 ar
    27   10   52 1
    28   11   12 ar
    29   11   53 1
    30   12   54 1
    31   13   18 ar
    32   13   14 ar
    33   14   15 ar
    34   14   55 1
    35   15   16 ar
    36   15   56 1
    37   16   17 ar
    38   16   19 1
    39   17   18 ar
    40   17   57 1
    41   18   58 1
    42   19   20 1
    43   20   59 1
    44   20   60 1
    45   20   61 1
    46   21   22 1
    47   22   23 2
    48   22   24 1
    49   24   29 1
    50   24   25 1
    51   24   62 1
    52   25   26 1
    53   25   63 1
    54   25   64 1
    55   26   27 1
    56   26   65 1
    57   26   66 1
    58   27   28 1
    59   27   67 1
    60   27   68 1
    61   28   29 1
    62   28   69 1
    63   28   70 1
    64   29   30 am
    65   30   31 2
    66   30   32 1
    67   32   33 2
    68   32   34 1
    69   34   35 1
    70   34   36 1
    71   34   37 1
    72   35   71 1
    73   35   72 1
    74   35   73 1
    75   36   74 1
    76   36   75 1
    77   36   76 1
    78   37   38 1
    79   37   77 1
    80   37   78 1
    81   38   79 1
    82   38   80 1
    83   38   81 1
@<TRIPOS>MOLECULE
CHEMBL146919__3
   81    83     0     0     0
SMALL
USER_CHARGES

@<TRIPOS>ATOM
      1 C1          0.0429    1.7224   -0.0932 C.3       1 <0>        -0.1552
      2 C2          0.0010    0.2055    0.1017 C.3       1 <0>        -0.1210
      3 C3         -1.4540   -0.2545    0.2125 C.3       1 <0>         0.1059
      4 C4         -1.4931   -1.7504    0.5315 C.3       1 <0>        -0.0408
      5 C5         -2.9481   -2.2103    0.6423 C.3       1 <0>        -0.1038
      6 C6         -2.9879   -3.6749    1.0831 C.3       1 <0>        -0.0788
      7 C7         -4.4210   -4.1280    1.1923 C.ar      1 <0>        -0.0789
      8 C8         -5.1020   -3.9850    2.3867 C.ar      1 <0>        -0.1191
      9 C9         -6.4166   -4.4006    2.4869 C.ar      1 <0>        -0.1184
     10 C10        -7.0503   -4.9587    1.3924 C.ar      1 <0>        -0.1264
     11 C11        -6.3696   -5.1008    0.1977 C.ar      1 <0>        -0.1182
     12 C12        -5.0564   -4.6813    0.0963 C.ar      1 <0>        -0.1167
     13 C13        -0.8065   -2.5169   -0.5695 C.ar      1 <0>        -0.1032
     14 C14        -1.2786   -2.4339   -1.8664 C.ar      1 <0>        -0.0460
     15 C15        -0.6512   -3.1359   -2.8773 C.ar      1 <0>        -0.1540
     16 C16         0.4538   -3.9242   -2.5904 C.ar      1 <0>         0.1252
     17 C17         0.9258   -4.0054   -1.2884 C.ar      1 <0>        -0.2107
     18 C18         0.2980   -3.2974   -0.2819 C.ar      1 <0>        -0.0759
     19 O1          1.0724   -4.6161   -3.5831 O.3       1 <0>        -0.3196
     20 C19         2.2040   -5.4073   -3.2146 C.3       1 <0>         0.0284
     21 O2         -2.1253   -0.0138   -1.0258 O.3       1 <0>        -0.3084
     22 C20        -2.7266    1.1774   -1.1715 C.2       1 <0>         0.4765
     23 O3         -2.6843    1.9889   -0.2773 O.2       1 <0>        -0.5023
     24 C21        -3.4544    1.5028   -2.4504 C.3       1 <0>         0.1471
     25 C22        -4.2327    2.8111   -2.2798 C.3       1 <0>        -0.1183
     26 C23        -4.8552    3.2082   -3.6203 C.3       1 <0>        -0.1215
     27 C24        -3.7476    3.4360   -4.6515 C.3       1 <0>        -0.1332
     28 C25        -2.9637    2.1347   -4.8490 C.3       1 <0>         0.0583
     29 N1         -2.4838    1.6687   -3.5409 N.am      1 <0>        -0.5798
     30 C26        -1.1780    1.3984   -3.3450 C.2       1 <0>         0.4554
     31 O4         -0.8158    0.8686   -2.3149 O.2       1 <0>        -0.4447
     32 C27        -0.1784    1.7503   -4.3937 C.2       1 <0>         0.3702
     33 O5         -0.5140    2.4026   -5.3533 O.2       1 <0>        -0.4087
     34 C28         1.2506    1.2920   -4.2566 C.3       1 <0>        -0.0850
     35 C29         1.8483    1.8641   -2.9696 C.3       1 <0>        -0.1565
     36 C30         1.2932   -0.2364   -4.2033 C.3       1 <0>        -0.1418
     37 C31         2.0612    1.7833   -5.4576 C.3       1 <0>        -0.1084
     38 C32         3.5121    1.3181   -5.3184 C.3       1 <0>        -0.1548
     39 H1          1.0795    2.0501   -0.1722 H         1 <0>         0.0432
     40 H2         -0.4921    1.9864   -1.0054 H         1 <0>         0.0789
     41 H3         -0.4288    2.2114    0.7591 H         1 <0>         0.0465
     42 H4          0.4727   -0.2835   -0.7506 H         1 <0>         0.0815
     43 H5          0.5360   -0.0586    1.0139 H         1 <0>         0.0601
     44 H6         -1.9507    0.2999    1.0088 H         1 <0>         0.0769
     45 H7         -0.9811   -1.9340    1.4760 H         1 <0>         0.0924
     46 H8         -3.4686   -1.5956    1.3767 H         1 <0>         0.0641
     47 H9         -3.4360   -2.1093   -0.3272 H         1 <0>         0.0711
     48 H10        -2.4674   -4.2896    0.3487 H         1 <0>         0.0754
     49 H11        -2.5000   -3.7759    2.0526 H         1 <0>         0.0703
     50 H12        -4.6069   -3.5490    3.2418 H         1 <0>         0.1198
     51 H13        -6.9484   -4.2896    3.4203 H         1 <0>         0.1204
     52 H14        -8.0772   -5.2840    1.4709 H         1 <0>         0.1198
     53 H15        -6.8647   -5.5371   -0.6573 H         1 <0>         0.1203
     54 H16        -4.5257   -4.7889   -0.8381 H         1 <0>         0.1199
     55 H17        -2.1388   -1.8200   -2.0892 H         1 <0>         0.1352
     56 H18        -1.0207   -3.0713   -3.8901 H         1 <0>         0.1222
     57 H19         1.7857   -4.6185   -1.0625 H         1 <0>         0.1229
     58 H20         0.6677   -3.3568    0.7311 H         1 <0>         0.1192
     59 H21         2.6021   -5.9057   -4.0984 H         1 <0>         0.0983
     60 H22         2.9715   -4.7648   -2.7831 H         1 <0>         0.0544
     61 H23         1.9014   -6.1547   -2.4812 H         1 <0>         0.0541
     62 H24        -4.1435    0.6943   -2.6945 H         1 <0>         0.1076
     63 H25        -5.0208    2.6718   -1.5398 H         1 <0>         0.0840
     64 H26        -3.5548    3.5969   -1.9465 H         1 <0>         0.0807
     65 H27        -5.5140    2.4111   -3.9651 H         1 <0>         0.0679
     66 H28        -5.4301    4.1259   -3.4961 H         1 <0>         0.0745
     67 H29        -4.1904    3.7415   -5.5996 H         1 <0>         0.0807
     68 H30        -3.0743    4.2159   -4.2959 H         1 <0>         0.0681
     69 H31        -3.6144    1.3795   -5.2898 H         1 <0>         0.0706
     70 H32        -2.1136    2.3165   -5.5066 H         1 <0>         0.1453
     71 H33         1.2709    1.5141   -2.1139 H         1 <0>         0.0919
     72 H34         2.8820    1.5326   -2.8704 H         1 <0>         0.0723
     73 H35         1.8180    2.9530   -3.0075 H         1 <0>         0.0531
     74 H36         0.8674   -0.6439   -5.1202 H         1 <0>         0.0550
     75 H37         2.3269   -0.5679   -4.1041 H         1 <0>         0.0722
     76 H38         0.7158   -0.5864   -3.3477 H         1 <0>         0.0807
     77 H39         1.6354    1.3758   -6.3745 H         1 <0>         0.0682
     78 H40         2.0309    2.8722   -5.4956 H         1 <0>         0.0676
     79 H41         4.0896    1.6681   -6.1740 H         1 <0>         0.0574
     80 H42         3.9379    1.7256   -4.4015 H         1 <0>         0.0592
     81 H43         3.5425    0.2292   -5.2805 H         1 <0>         0.0597
@<TRIPOS>BOND
     1    1    2 1
     2    1   39 1
     3    1   40 1
     4    1   41 1
     5    2    3 1
     6    2   42 1
     7    2   43 1
     8    3    4 1
     9    3   21 1
    10    3   44 1
    11    4    5 1
    12    4   13 1
    13    4   45 1
    14    5    6 1
    15    5   46 1
    16    5   47 1
    17    6    7 1
    18    6   48 1
    19    6   49 1
    20    7   12 ar
    21    7    8 ar
    22    8    9 ar
    23    8   50 1
    24    9   10 ar
    25    9   51 1
    26   10   11 ar
    27   10   52 1
    28   11   12 ar
    29   11   53 1
    30   12   54 1
    31   13   18 ar
    32   13   14 ar
    33   14   15 ar
    34   14   55 1
    35   15   16 ar
    36   15   56 1
    37   16   17 ar
    38   16   19 1
    39   17   18 ar
    40   17   57 1
    41   18   58 1
    42   19   20 1
    43   20   59 1
    44   20   60 1
    45   20   61 1
    46   21   22 1
    47   22   23 2
    48   22   24 1
    49   24   29 1
    50   24   25 1
    51   24   62 1
    52   25   26 1
    53   25   63 1
    54   25   64 1
    55   26   27 1
    56   26   65 1
    57   26   66 1
    58   27   28 1
    59   27   67 1
    60   27   68 1
    61   28   29 1
    62   28   69 1
    63   28   70 1
    64   29   30 am
    65   30   31 2
    66   30   32 1
    67   32   33 2
    68   32   34 1
    69   34   35 1
    70   34   36 1
    71   34   37 1
    72   35   71 1
    73   35   72 1
    74   35   73 1
    75   36   74 1
    76   36   75 1
    77   36   76 1
    78   37   38 1
    79   37   77 1
    80   37   78 1
    81   38   79 1
    82   38   80 1
    83   38   81 1
@<TRIPOS>MOLECULE
CHEMBL146919__4
   81    83     0     0     0
SMALL
USER_CHARGES

@<TRIPOS>ATOM
      1 C1         -0.1389    1.5444   -0.4102 C.3       1 <0>        -0.1483
      2 C2         -0.3715    0.0344   -0.4914 C.3       1 <0>        -0.1302
      3 C3         -1.8559   -0.2655   -0.2732 C.3       1 <0>         0.1083
      4 C4         -2.1353   -1.7311   -0.6121 C.3       1 <0>        -0.0406
      5 C5         -1.6841   -2.0181   -2.0456 C.3       1 <0>        -0.1048
      6 C6         -1.8955   -3.5005   -2.3596 C.3       1 <0>        -0.0785
      7 C7         -1.5644   -3.7596   -3.8068 C.ar      1 <0>        -0.0795
      8 C8         -2.5479   -3.6472   -4.7717 C.ar      1 <0>        -0.1167
      9 C9         -2.2443   -3.8848   -6.0991 C.ar      1 <0>        -0.1181
     10 C10        -0.9570   -4.2345   -6.4618 C.ar      1 <0>        -0.1258
     11 C11         0.0267   -4.3460   -5.4970 C.ar      1 <0>        -0.1185
     12 C12        -0.2760   -4.1042   -4.1701 C.ar      1 <0>        -0.1183
     13 C13        -3.6123   -2.0029   -0.4863 C.ar      1 <0>        -0.1057
     14 C14        -4.5117   -1.3054   -1.2713 C.ar      1 <0>        -0.0762
     15 C15        -5.8661   -1.5525   -1.1577 C.ar      1 <0>        -0.1483
     16 C16        -6.3235   -2.5017   -0.2553 C.ar      1 <0>         0.1232
     17 C17        -5.4190   -3.2006    0.5309 C.ar      1 <0>        -0.2060
     18 C18        -4.0652   -2.9535    0.4098 C.ar      1 <0>        -0.0693
     19 O1         -7.6555   -2.7462   -0.1413 O.3       1 <0>        -0.3187
     20 C19        -8.0542   -3.7369    0.8082 C.3       1 <0>         0.0275
     21 O2         -2.1958   -0.0192    1.0927 O.3       1 <0>        -0.3223
     22 C20        -2.6096    1.2192    1.4040 C.2       1 <0>         0.4846
     23 O3         -2.6808    2.0661    0.5451 O.2       1 <0>        -0.5033
     24 C21        -2.9854    1.5534    2.8246 C.3       1 <0>         0.1475
     25 C22        -3.5623    2.9713    2.8833 C.3       1 <0>        -0.1177
     26 C23        -3.8120    3.3561    4.3433 C.3       1 <0>        -0.1214
     27 C24        -2.4876    3.3414    5.1102 C.3       1 <0>        -0.1386
     28 C25        -1.8985    1.9277    5.0767 C.3       1 <0>         0.0738
     29 N1         -1.7903    1.4934    3.6773 N.am      1 <0>        -0.5800
     30 C26        -0.6172    1.0486    3.1850 C.2       1 <0>         0.4608
     31 O4         -0.5053    0.8177    1.9988 O.2       1 <0>        -0.4554
     32 C27         0.5431    0.8402    4.0977 C.2       1 <0>         0.3697
     33 O5          0.3920    0.9161    5.2936 O.2       1 <0>        -0.4093
     34 C28         1.9045    0.5348    3.5281 C.3       1 <0>        -0.0860
     35 C29         1.8380   -0.7586    2.7134 C.3       1 <0>        -0.1490
     36 C30         2.3484    1.6855    2.6227 C.3       1 <0>        -0.1469
     37 C31         2.9092    0.3673    4.6698 C.3       1 <0>        -0.1084
     38 C32         4.2913    0.0572    4.0915 C.3       1 <0>        -0.1553
     39 H1          0.9186    1.7580   -0.5657 H         1 <0>         0.0418
     40 H2         -0.7275    2.0446   -1.1793 H         1 <0>         0.0443
     41 H3         -0.4422    1.9065    0.5722 H         1 <0>         0.0810
     42 H4         -0.0683   -0.3276   -1.4738 H         1 <0>         0.0689
     43 H5          0.2171   -0.4658    0.2777 H         1 <0>         0.0791
     44 H6         -2.4550    0.3772   -0.9183 H         1 <0>         0.0770
     45 H7         -1.5876   -2.3741    0.0769 H         1 <0>         0.0878
     46 H8         -2.2687   -1.4129   -2.7385 H         1 <0>         0.0683
     47 H9         -0.6275   -1.7716   -2.1501 H         1 <0>         0.0771
     48 H10        -1.2456   -4.1027   -1.7248 H         1 <0>         0.0719
     49 H11        -2.9355   -3.7671   -2.1715 H         1 <0>         0.0754
     50 H12        -3.5537   -3.3740   -4.4883 H         1 <0>         0.1199
     51 H13        -3.0128   -3.7977   -6.8529 H         1 <0>         0.1205
     52 H14        -0.7199   -4.4208   -7.4988 H         1 <0>         0.1200
     53 H15         1.0324   -4.6195   -5.7803 H         1 <0>         0.1206
     54 H16         0.4934   -4.1877   -3.4168 H         1 <0>         0.1204
     55 H17        -4.1551   -0.5665   -1.9737 H         1 <0>         0.1253
     56 H18        -6.5683   -1.0069   -1.7706 H         1 <0>         0.1288
     57 H19        -5.7726   -3.9400    1.2342 H         1 <0>         0.1263
     58 H20        -3.3603   -3.5004    1.0184 H         1 <0>         0.1229
     59 H21        -9.1399   -3.8334    0.7985 H         1 <0>         0.1002
     60 H22        -7.6021   -4.6937    0.5467 H         1 <0>         0.0554
     61 H23        -7.7248   -3.4395    1.8038 H         1 <0>         0.0548
     62 H24        -3.7268    0.8397    3.1839 H         1 <0>         0.1076
     63 H25        -2.8545    3.6708    2.4386 H         1 <0>         0.0814
     64 H26        -4.5023    3.0046    2.3324 H         1 <0>         0.0848
     65 H27        -4.2456    4.3552    4.3865 H         1 <0>         0.0755
     66 H28        -4.5008    2.6418    4.7945 H         1 <0>         0.0683
     67 H29        -1.7899    4.0374    4.6445 H         1 <0>         0.0681
     68 H30        -2.6627    3.6382    6.1443 H         1 <0>         0.0826
     69 H31        -0.9096    1.9330    5.5351 H         1 <0>         0.1329
     70 H32        -2.5523    1.2464    5.6212 H         1 <0>         0.0757
     71 H33         1.1223   -0.6394    1.9001 H         1 <0>         0.0867
     72 H34         2.8227   -0.9795    2.3014 H         1 <0>         0.0729
     73 H35         1.5218   -1.5784    3.3584 H         1 <0>         0.0552
     74 H36         2.3957    2.6069    3.2031 H         1 <0>         0.0555
     75 H37         3.3331    1.4646    2.2107 H         1 <0>         0.0761
     76 H38         1.6326    1.8048    1.8094 H         1 <0>         0.0765
     77 H39         2.9565    1.2888    5.2501 H         1 <0>         0.0680
     78 H40         2.5929   -0.4525    5.3148 H         1 <0>         0.0688
     79 H41         5.0071   -0.0620    4.9048 H         1 <0>         0.0578
     80 H42         4.2440   -0.8642    3.5111 H         1 <0>         0.0601
     81 H43         4.6076    0.8771    3.4465 H         1 <0>         0.0596
@<TRIPOS>BOND
     1    1    2 1
     2    1   39 1
     3    1   40 1
     4    1   41 1
     5    2    3 1
     6    2   42 1
     7    2   43 1
     8    3    4 1
     9    3   21 1
    10    3   44 1
    11    4    5 1
    12    4   13 1
    13    4   45 1
    14    5    6 1
    15    5   46 1
    16    5   47 1
    17    6    7 1
    18    6   48 1
    19    6   49 1
    20    7   12 ar
    21    7    8 ar
    22    8    9 ar
    23    8   50 1
    24    9   10 ar
    25    9   51 1
    26   10   11 ar
    27   10   52 1
    28   11   12 ar
    29   11   53 1
    30   12   54 1
    31   13   18 ar
    32   13   14 ar
    33   14   15 ar
    34   14   55 1
    35   15   16 ar
    36   15   56 1
    37   16   17 ar
    38   16   19 1
    39   17   18 ar
    40   17   57 1
    41   18   58 1
    42   19   20 1
    43   20   59 1
    44   20   60 1
    45   20   61 1
    46   21   22 1
    47   22   23 2
    48   22   24 1
    49   24   29 1
    50   24   25 1
    51   24   62 1
    52   25   26 1
    53   25   63 1
    54   25   64 1
    55   26   27 1
    56   26   65 1
    57   26   66 1
    58   27   28 1
    59   27   67 1
    60   27   68 1
    61   28   29 1
    62   28   69 1
    63   28   70 1
    64   29   30 am
    65   30   31 2
    66   30   32 1
    67   32   33 2
    68   32   34 1
    69   34   35 1
    70   34   36 1
    71   34   37 1
    72   35   71 1
    73   35   72 1
    74   35   73 1
    75   36   74 1
    76   36   75 1
    77   36   76 1
    78   37   38 1
    79   37   77 1
    80   37   78 1
    81   38   79 1
    82   38   80 1
    83   38   81 1
@<TRIPOS>MOLECULE
CHEMBL146919__5
   81    83     0     0     0
SMALL
USER_CHARGES

@<TRIPOS>ATOM
      1 C1          0.2342    1.3122    0.5523 C.3       1 <0>        -0.1480
      2 C2          0.3172   -0.2018    0.3474 C.3       1 <0>        -0.1482
      3 C3         -1.0951   -0.7789    0.2319 C.3       1 <0>         0.1040
      4 C4         -1.0110   -2.2711   -0.0955 C.3       1 <0>        -0.0394
      5 C5         -0.1752   -2.4691   -1.3617 C.3       1 <0>        -0.1055
      6 C6          0.0008   -3.9654   -1.6279 C.3       1 <0>        -0.0783
      7 C7          0.7225   -4.1615   -2.9362 C.ar      1 <0>        -0.0798
      8 C8          0.0043   -4.2667   -4.1127 C.ar      1 <0>        -0.1162
      9 C9          0.6663   -4.4465   -5.3128 C.ar      1 <0>        -0.1180
     10 C10         2.0464   -4.5207   -5.3366 C.ar      1 <0>        -0.1257
     11 C11         2.7646   -4.4145   -4.1602 C.ar      1 <0>        -0.1186
     12 C12         2.1029   -4.2304   -2.9606 C.ar      1 <0>        -0.1188
     13 C13        -2.3984   -2.8153   -0.3193 C.ar      1 <0>        -0.1045
     14 C14        -3.1873   -2.2993   -1.3308 C.ar      1 <0>        -0.0589
     15 C15        -4.4596   -2.7961   -1.5377 C.ar      1 <0>        -0.1422
     16 C16        -4.9454   -3.8139   -0.7297 C.ar      1 <0>         0.1246
     17 C17        -4.1517   -4.3302    0.2842 C.ar      1 <0>        -0.2092
     18 C18        -2.8782   -3.8335    0.4837 C.ar      1 <0>        -0.0703
     19 O1         -6.1969   -4.3039   -0.9309 O.3       1 <0>        -0.3172
     20 C19        -6.6310   -5.3514   -0.0612 C.3       1 <0>         0.0282
     21 O2         -1.7850   -0.6013    1.4706 O.3       1 <0>        -0.3404
     22 C20        -2.4822    0.5357    1.6222 C.2       1 <0>         0.4810
     23 O3         -2.5058    1.3531    0.7327 O.2       1 <0>        -0.4847
     24 C21        -3.2354    0.7928    2.9020 C.3       1 <0>         0.1501
     25 C22        -2.7057    2.0698    3.5619 C.3       1 <0>        -0.1237
     26 C23        -3.5646    2.4015    4.7844 C.3       1 <0>        -0.1195
     27 C24        -5.0089    2.6492    4.3431 C.3       1 <0>        -0.1331
     28 C25        -5.5647    1.3788    3.6920 C.3       1 <0>         0.0572
     29 N1         -4.6634    0.9709    2.6057 N.am      1 <0>        -0.5805
     30 C26        -5.1375    0.7642    1.3612 C.2       1 <0>         0.4735
     31 O4         -4.4134    0.2989    0.5055 O.2       1 <0>        -0.4661
     32 C27        -6.5514    1.1070    1.0356 C.2       1 <0>         0.3723
     33 O5         -7.2267    1.7086    1.8362 O.2       1 <0>        -0.4088
     34 C28        -7.1382    0.7028   -0.2923 C.3       1 <0>        -0.0865
     35 C29        -6.3322    1.3457   -1.4228 C.3       1 <0>        -0.1459
     36 C30        -7.0858   -0.8200   -0.4308 C.3       1 <0>        -0.1428
     37 C31        -8.5922    1.1724   -0.3716 C.3       1 <0>        -0.1080
     38 C32        -9.1879    0.7621   -1.7198 C.3       1 <0>        -0.1551
     39 H1          1.2403    1.7234    0.6346 H         1 <0>         0.0533
     40 H2         -0.2756    1.7664   -0.2973 H         1 <0>         0.0628
     41 H3         -0.3212    1.5253    1.4657 H         1 <0>         0.0468
     42 H4          0.8726   -0.4149   -0.5660 H         1 <0>         0.0843
     43 H5          0.8270   -0.6560    1.1970 H         1 <0>         0.0707
     44 H6         -1.6348   -0.2626   -0.5619 H         1 <0>         0.0897
     45 H7         -0.5430   -2.7996    0.7350 H         1 <0>         0.0870
     46 H8         -0.6829   -2.0067   -2.2082 H         1 <0>         0.0698
     47 H9          0.8026   -2.0064   -1.2276 H         1 <0>         0.0752
     48 H10         0.5826   -4.4120   -0.8215 H         1 <0>         0.0720
     49 H11        -0.9777   -4.4432   -1.6775 H         1 <0>         0.0764
     50 H12        -1.0740   -4.2088   -4.0942 H         1 <0>         0.1205
     51 H13         0.1052   -4.5295   -6.2319 H         1 <0>         0.1206
     52 H14         2.5636   -4.6619   -6.2741 H         1 <0>         0.1200
     53 H15         3.8429   -4.4727   -4.1787 H         1 <0>         0.1206
     54 H16         2.6642   -4.1437   -2.0420 H         1 <0>         0.1202
     55 H17        -2.8086   -1.5070   -1.9595 H         1 <0>         0.1223
     56 H18        -5.0757   -2.3922   -2.3275 H         1 <0>         0.1264
     57 H19        -4.5277   -5.1225    0.9145 H         1 <0>         0.1234
     58 H20        -2.2583   -4.2381    1.2700 H         1 <0>         0.1202
     59 H21        -7.6445   -5.6498   -0.3295 H         1 <0>         0.0989
     60 H22        -5.9623   -6.2064   -0.1602 H         1 <0>         0.0544
     61 H23        -6.6175   -4.9969    0.9694 H         1 <0>         0.0530
     62 H24        -3.1051   -0.0517    3.5786 H         1 <0>         0.1029
     63 H25        -1.6726    1.9165    3.8739 H         1 <0>         0.0834
     64 H26        -2.7527    2.8938    2.8499 H         1 <0>         0.0815
     65 H27        -3.5370    1.5669    5.4848 H         1 <0>         0.0693
     66 H28        -3.1748    3.2961    5.2701 H         1 <0>         0.0757
     67 H29        -5.6152    2.9082    5.2111 H         1 <0>         0.0819
     68 H30        -5.0343    3.4677    3.6237 H         1 <0>         0.0693
     69 H31        -5.6246    0.5835    4.4351 H         1 <0>         0.0699
     70 H32        -6.5569    1.5794    3.2877 H         1 <0>         0.1467
     71 H33        -5.2964    1.0112   -1.3664 H         1 <0>         0.0843
     72 H34        -6.7566    1.0534   -2.3833 H         1 <0>         0.0731
     73 H35        -6.3696    2.4306   -1.3242 H         1 <0>         0.0541
     74 H36        -7.6599   -1.2780    0.3746 H         1 <0>         0.0524
     75 H37        -7.5102   -1.1123   -1.3913 H         1 <0>         0.0763
     76 H38        -6.0499   -1.1545   -0.3743 H         1 <0>         0.0795
     77 H39        -9.1663    0.7144    0.4338 H         1 <0>         0.0678
     78 H40        -8.6295    2.2573   -0.2730 H         1 <0>         0.0682
     79 H41       -10.2237    1.0967   -1.7763 H         1 <0>         0.0576
     80 H42        -8.6137    1.2201   -2.5252 H         1 <0>         0.0599
     81 H43        -9.1505   -0.3228   -1.8184 H         1 <0>         0.0604
@<TRIPOS>BOND
     1    1    2 1
     2    1   39 1
     3    1   40 1
     4    1   41 1
     5    2    3 1
     6    2   42 1
     7    2   43 1
     8    3    4 1
     9    3   21 1
    10    3   44 1
    11    4    5 1
    12    4   13 1
    13    4   45 1
    14    5    6 1
    15    5   46 1
    16    5   47 1
    17    6    7 1
    18    6   48 1
    19    6   49 1
    20    7   12 ar
    21    7    8 ar
    22    8    9 ar
    23    8   50 1
    24    9   10 ar
    25    9   51 1
    26   10   11 ar
    27   10   52 1
    28   11   12 ar
    29   11   53 1
    30   12   54 1
    31   13   18 ar
    32   13   14 ar
    33   14   15 ar
    34   14   55 1
    35   15   16 ar
    36   15   56 1
    37   16   17 ar
    38   16   19 1
    39   17   18 ar
    40   17   57 1
    41   18   58 1
    42   19   20 1
    43   20   59 1
    44   20   60 1
    45   20   61 1
    46   21   22 1
    47   22   23 2
    48   22   24 1
    49   24   29 1
    50   24   25 1
    51   24   62 1
    52   25   26 1
    53   25   63 1
    54   25   64 1
    55   26   27 1
    56   26   65 1
    57   26   66 1
    58   27   28 1
    59   27   67 1
    60   27   68 1
    61   28   29 1
    62   28   69 1
    63   28   70 1
    64   29   30 am
    65   30   31 2
    66   30   32 1
    67   32   33 2
    68   32   34 1
    69   34   35 1
    70   34   36 1
    71   34   37 1
    72   35   71 1
    73   35   72 1
    74   35   73 1
    75   36   74 1
    76   36   75 1
    77   36   76 1
    78   37   38 1
    79   37   77 1
    80   37   78 1
    81   38   79 1
    82   38   80 1
    83   38   81 1
@<TRIPOS>MOLECULE
CHEMBL146919__6
   81    83     0     0     0
SMALL
USER_CHARGES

@<TRIPOS>ATOM
      1 C1          0.0036    1.0363    0.0854 C.3       1 <0>        -0.1510
      2 C2         -0.1772   -0.4828    0.1083 C.3       1 <0>        -0.1202
      3 C3         -1.6698   -0.8189    0.1012 C.3       1 <0>         0.1075
      4 C4         -1.8507   -2.3347   -0.0017 C.3       1 <0>        -0.0385
      5 C5         -3.3433   -2.6708   -0.0088 C.3       1 <0>        -0.1036
      6 C6         -3.5241   -4.1899    0.0141 C.3       1 <0>        -0.0780
      7 C7         -4.9943   -4.5210    0.0072 C.ar      1 <0>        -0.0790
      8 C8         -5.6798   -4.6480    1.2008 C.ar      1 <0>        -0.1184
      9 C9         -7.0284   -4.9517    1.1944 C.ar      1 <0>        -0.1186
     10 C10        -7.6915   -5.1279   -0.0056 C.ar      1 <0>        -0.1263
     11 C11        -7.0062   -4.9999   -1.1993 C.ar      1 <0>        -0.1180
     12 C12        -5.6586   -4.6920   -1.1930 C.ar      1 <0>        -0.1174
     13 C13        -1.2181   -2.8307   -1.2764 C.ar      1 <0>        -0.1053
     14 C14        -1.6583   -2.3527   -2.4968 C.ar      1 <0>        -0.0731
     15 C15        -1.0803   -2.8062   -3.6667 C.ar      1 <0>        -0.1475
     16 C16        -0.0570   -3.7416   -3.6163 C.ar      1 <0>         0.1255
     17 C17         0.3832   -4.2193   -2.3905 C.ar      1 <0>        -0.2052
     18 C18        -0.1946   -3.7588   -1.2232 C.ar      1 <0>        -0.0708
     19 O1          0.5129   -4.1896   -4.7658 O.3       1 <0>        -0.3184
     20 C19         1.5610   -5.1525   -4.6379 C.3       1 <0>         0.0272
     21 O2         -2.2697   -0.3485    1.3099 O.3       1 <0>        -0.3194
     22 C20        -2.7593    0.9012    1.3010 C.2       1 <0>         0.4819
     23 O3         -2.6811    1.5736    0.3001 O.2       1 <0>        -0.5014
     24 C21        -3.4065    1.4658    2.5393 C.3       1 <0>         0.1472
     25 C22        -3.8959    2.8901    2.2592 C.3       1 <0>        -0.1172
     26 C23        -4.4254    3.5075    3.5556 C.3       1 <0>        -0.1215
     27 C24        -3.2969    3.5786    4.5869 C.3       1 <0>        -0.1388
     28 C25        -2.8007    2.1621    4.8934 C.3       1 <0>         0.0738
     29 N1         -2.4250    1.5092    3.6319 N.am      1 <0>        -0.5819
     30 C26        -1.2034    0.9607    3.4797 C.2       1 <0>         0.4559
     31 O4         -0.8557    0.5454    2.3936 O.2       1 <0>        -0.4483
     32 C27        -0.2792    0.8641    4.6456 C.2       1 <0>         0.3694
     33 O5         -0.6734    1.1408    5.7532 O.2       1 <0>        -0.4102
     34 C28         1.1468    0.4213    4.4420 C.3       1 <0>        -0.0859
     35 C29         1.1631   -0.9851    3.8399 C.3       1 <0>        -0.1485
     36 C30         1.8513    1.3913    3.4913 C.3       1 <0>        -0.1473
     37 C31         1.8739    0.4083    5.7881 C.3       1 <0>        -0.1084
     38 C32         3.3217   -0.0413    5.5815 C.3       1 <0>        -0.1553
     39 H1          1.0670    1.2758    0.0904 H         1 <0>         0.0405
     40 H2         -0.4562    1.4434   -0.8151 H         1 <0>         0.0460
     41 H3         -0.4711    1.4720    0.9646 H         1 <0>         0.0811
     42 H4          0.2975   -0.9185   -0.7709 H         1 <0>         0.0645
     43 H5          0.2827   -0.8899    1.0088 H         1 <0>         0.0755
     44 H6         -2.1466   -0.3373   -0.7525 H         1 <0>         0.0761
     45 H7         -1.3739   -2.8163    0.8520 H         1 <0>         0.0877
     46 H8         -3.8180   -2.2351    0.8704 H         1 <0>         0.0707
     47 H9         -3.8032   -2.2637   -0.9093 H         1 <0>         0.0639
     48 H10        -3.0494   -4.6256   -0.8651 H         1 <0>         0.0742
     49 H11        -3.0643   -4.5970    0.9146 H         1 <0>         0.0711
     50 H12        -5.1617   -4.5104    2.1384 H         1 <0>         0.1197
     51 H13        -7.5638   -5.0517    2.1270 H         1 <0>         0.1203
     52 H14        -8.7450   -5.3659   -0.0106 H         1 <0>         0.1200
     53 H15        -7.5242   -5.1379   -2.1368 H         1 <0>         0.1205
     54 H16        -5.1240   -4.5884   -2.1256 H         1 <0>         0.1199
     55 H17        -2.4549   -1.6245   -2.5355 H         1 <0>         0.1262
     56 H18        -1.4250   -2.4330   -4.6198 H         1 <0>         0.1297
     57 H19         1.1796   -4.9476   -2.3486 H         1 <0>         0.1275
     58 H20         0.1507   -4.1271   -0.2684 H         1 <0>         0.1245
     59 H21         1.9271   -5.4246   -5.6279 H         1 <0>         0.1004
     60 H22         2.3764   -4.7264   -4.0534 H         1 <0>         0.0556
     61 H23         1.1789   -6.0408   -4.1349 H         1 <0>         0.0556
     62 H24        -4.2490    0.8382    2.8298 H         1 <0>         0.1099
     63 H25        -3.0689    3.4912    1.8812 H         1 <0>         0.0801
     64 H26        -4.6940    2.8613    1.5174 H         1 <0>         0.0858
     65 H27        -4.7969    4.5122    3.3540 H         1 <0>         0.0753
     66 H28        -5.2360    2.8924    3.9461 H         1 <0>         0.0686
     67 H29        -2.4755    4.1732    4.1870 H         1 <0>         0.0678
     68 H30        -3.6687    4.0398    5.5018 H         1 <0>         0.0823
     69 H31        -1.9329    2.2132    5.5509 H         1 <0>         0.1333
     70 H32        -3.5950    1.5933    5.3768 H         1 <0>         0.0754
     71 H33         0.6451   -0.9758    2.8809 H         1 <0>         0.0866
     72 H34         2.1945   -1.3054    3.6927 H         1 <0>         0.0722
     73 H35         0.6613   -1.6761    4.5172 H         1 <0>         0.0552
     74 H36         1.8397    2.3933    3.9202 H         1 <0>         0.0553
     75 H37         2.8827    1.0710    3.3440 H         1 <0>         0.0756
     76 H38         1.3333    1.4006    2.5322 H         1 <0>         0.0769
     77 H39         1.8623    1.4103    6.2171 H         1 <0>         0.0679
     78 H40         1.3721   -0.2827    6.4655 H         1 <0>         0.0687
     79 H41         3.8397   -0.0506    6.5405 H         1 <0>         0.0577
     80 H42         3.3333   -1.0433    5.1525 H         1 <0>         0.0599
     81 H43         3.8235    0.6497    4.9041 H         1 <0>         0.0594
@<TRIPOS>BOND
     1    1    2 1
     2    1   39 1
     3    1   40 1
     4    1   41 1
     5    2    3 1
     6    2   42 1
     7    2   43 1
     8    3    4 1
     9    3   21 1
    10    3   44 1
    11    4    5 1
    12    4   13 1
    13    4   45 1
    14    5    6 1
    15    5   46 1
    16    5   47 1
    17    6    7 1
    18    6   48 1
    19    6   49 1
    20    7   12 ar
    21    7    8 ar
    22    8    9 ar
    23    8   50 1
    24    9   10 ar
    25    9   51 1
    26   10   11 ar
    27   10   52 1
    28   11   12 ar
    29   11   53 1
    30   12   54 1
    31   13   18 ar
    32   13   14 ar
    33   14   15 ar
    34   14   55 1
    35   15   16 ar
    36   15   56 1
    37   16   17 ar
    38   16   19 1
    39   17   18 ar
    40   17   57 1
    41   18   58 1
    42   19   20 1
    43   20   59 1
    44   20   60 1
    45   20   61 1
    46   21   22 1
    47   22   23 2
    48   22   24 1
    49   24   29 1
    50   24   25 1
    51   24   62 1
    52   25   26 1
    53   25   63 1
    54   25   64 1
    55   26   27 1
    56   26   65 1
    57   26   66 1
    58   27   28 1
    59   27   67 1
    60   27   68 1
    61   28   29 1
    62   28   69 1
    63   28   70 1
    64   29   30 am
    65   30   31 2
    66   30   32 1
    67   32   33 2
    68   32   34 1
    69   34   35 1
    70   34   36 1
    71   34   37 1
    72   35   71 1
    73   35   72 1
    74   35   73 1
    75   36   74 1
    76   36   75 1
    77   36   76 1
    78   37   38 1
    79   37   77 1
    80   37   78 1
    81   38   79 1
    82   38   80 1
    83   38   81 1
@<TRIPOS>MOLECULE
CHEMBL146919__7
   81    83     0     0     0
SMALL
USER_CHARGES

@<TRIPOS>ATOM
      1 C1          0.0736    2.3055    1.0659 C.3       1 <0>        -0.1476
      2 C2          0.2157    1.0046    0.2732 C.3       1 <0>        -0.1417
      3 C3         -1.1633    0.5454   -0.2046 C.3       1 <0>         0.1044
      4 C4         -1.0088   -0.6850   -1.1008 C.3       1 <0>        -0.0374
      5 C5         -2.3878   -1.1443   -1.5786 C.3       1 <0>        -0.0984
      6 C6         -2.2458   -2.4452   -2.3713 C.3       1 <0>        -0.0796
      7 C7         -3.6040   -2.8976   -2.8420 C.ar      1 <0>        -0.0759
      8 C8         -4.3691   -3.7303   -2.0468 C.ar      1 <0>        -0.1179
      9 C9         -5.6150   -4.1452   -2.4785 C.ar      1 <0>        -0.1181
     10 C10        -6.0961   -3.7271   -3.7052 C.ar      1 <0>        -0.1261
     11 C11        -5.3314   -2.8937   -4.4999 C.ar      1 <0>        -0.1171
     12 C12        -4.0873   -2.4753   -4.0663 C.ar      1 <0>        -0.1158
     13 C13        -0.1553   -0.3346   -2.2924 C.ar      1 <0>        -0.1079
     14 C14        -0.5555    0.6672   -3.1572 C.ar      1 <0>        -0.0715
     15 C15         0.2249    0.9900   -4.2505 C.ar      1 <0>        -0.1475
     16 C16         1.4112    0.3084   -4.4800 C.ar      1 <0>         0.1261
     17 C17         1.8107   -0.6961   -3.6104 C.ar      1 <0>        -0.2057
     18 C18         1.0294   -1.0116   -2.5157 C.ar      1 <0>        -0.0716
     19 O1          2.1804    0.6238   -5.5550 O.3       1 <0>        -0.3181
     20 C19         3.3885   -0.1194   -5.7287 C.3       1 <0>         0.0270
     21 O2         -1.9726    0.2131    0.9253 O.3       1 <0>        -0.3431
     22 C20        -2.7109    1.1998    1.4573 C.2       1 <0>         0.4793
     23 O3         -2.6714    2.3088    0.9795 O.2       1 <0>        -0.4839
     24 C21        -3.5892    0.9242    2.6506 C.3       1 <0>         0.1525
     25 C22        -3.1902    1.8476    3.8060 C.3       1 <0>        -0.1253
     26 C23        -4.1725    1.6616    4.9648 C.3       1 <0>        -0.1187
     27 C24        -5.5822    2.0424    4.5069 C.3       1 <0>        -0.1349
     28 C25        -6.0083    1.1213    3.3594 C.3       1 <0>         0.0916
     29 N1         -4.9921    1.1844    2.3001 N.am      1 <0>        -0.5848
     30 C26        -5.3403    1.4754    1.0310 C.2       1 <0>         0.4800
     31 O4         -4.5143    1.4074    0.1444 O.2       1 <0>        -0.4758
     32 C27        -6.7401    1.8808    0.7163 C.2       1 <0>         0.3691
     33 O5         -7.3739    2.5312    1.5126 O.2       1 <0>        -0.4089
     34 C28        -7.3641    1.4791   -0.5953 C.3       1 <0>        -0.0908
     35 C29        -6.5432    2.0584   -1.7492 C.3       1 <0>        -0.1468
     36 C30        -7.3883   -0.0469   -0.7023 C.3       1 <0>        -0.1410
     37 C31        -8.7943    2.0181   -0.6659 C.3       1 <0>        -0.1074
     38 C32        -9.4278    1.6103   -1.9975 C.3       1 <0>        -0.1552
     39 H1          1.0561    2.6327    1.4063 H         1 <0>         0.0527
     40 H2         -0.3644    3.0735    0.4284 H         1 <0>         0.0622
     41 H3         -0.5720    2.1371    1.9278 H         1 <0>         0.0464
     42 H4          0.8614    1.1730   -0.5887 H         1 <0>         0.0811
     43 H5          0.6537    0.2366    0.9108 H         1 <0>         0.0690
     44 H6         -1.6385    1.3482   -0.7684 H         1 <0>         0.0895
     45 H7         -0.5337   -1.4878   -0.5370 H         1 <0>         0.0868
     46 H8         -3.0335   -1.3127   -0.7167 H         1 <0>         0.0722
     47 H9         -2.8258   -0.3763   -2.2162 H         1 <0>         0.0668
     48 H10        -1.6001   -2.2768   -3.2332 H         1 <0>         0.0732
     49 H11        -1.8078   -3.2132   -1.7338 H         1 <0>         0.0701
     50 H12        -3.9932   -4.0570   -1.0885 H         1 <0>         0.1185
     51 H13        -6.2124   -4.7964   -1.8576 H         1 <0>         0.1190
     52 H14        -7.0692   -4.0519   -4.0427 H         1 <0>         0.1188
     53 H15        -5.7072   -2.5673   -5.4584 H         1 <0>         0.1195
     54 H16        -3.4915   -1.8211   -4.6855 H         1 <0>         0.1189
     55 H17        -1.4791    1.1975   -2.9782 H         1 <0>         0.1282
     56 H18        -0.0885    1.7721   -4.9262 H         1 <0>         0.1302
     57 H19         2.7338   -1.2282   -3.7869 H         1 <0>         0.1278
     58 H20         1.3421   -1.7904   -1.8360 H         1 <0>         0.1248
     59 H21         3.9059    0.2316   -6.6216 H         1 <0>         0.1005
     60 H22         4.0297    0.0209   -4.8585 H         1 <0>         0.0556
     61 H23         3.1515   -1.1777   -5.8385 H         1 <0>         0.0557
     62 H24        -3.4756   -0.1161    2.9554 H         1 <0>         0.1062
     63 H25        -2.1828    1.5986    4.1395 H         1 <0>         0.0851
     64 H26        -3.2168    2.8840    3.4693 H         1 <0>         0.0828
     65 H27        -4.1636    0.6197    5.2847 H         1 <0>         0.0707
     66 H28        -3.8765    2.2995    5.7976 H         1 <0>         0.0774
     67 H29        -6.2773    1.9321    5.3392 H         1 <0>         0.0837
     68 H30        -5.5863    3.0769    4.1636 H         1 <0>         0.0732
     69 H31        -6.0925    0.0977    3.7245 H         1 <0>         0.0769
     70 H32        -6.9692    1.4506    2.9640 H         1 <0>         0.1089
     71 H33        -5.5243    1.6744   -1.6989 H         1 <0>         0.0857
     72 H34        -6.9946    1.7678   -2.6979 H         1 <0>         0.0719
     73 H35        -6.5259    3.1456   -1.6729 H         1 <0>         0.0561
     74 H36        -7.9731   -0.4596    0.1198 H         1 <0>         0.0582
     75 H37        -7.8397   -0.3375   -1.6510 H         1 <0>         0.0792
     76 H38        -6.3695   -0.4309   -0.6520 H         1 <0>         0.0652
     77 H39        -9.3791    1.6055    0.1562 H         1 <0>         0.0685
     78 H40        -8.7770    3.1053   -0.5896 H         1 <0>         0.0693
     79 H41       -10.4467    1.9943   -2.0478 H         1 <0>         0.0584
     80 H42        -8.8430    2.0230   -2.8196 H         1 <0>         0.0603
     81 H43        -9.4451    0.5231   -2.0737 H         1 <0>         0.0595
@<TRIPOS>BOND
     1    1    2 1
     2    1   39 1
     3    1   40 1
     4    1   41 1
     5    2    3 1
     6    2   42 1
     7    2   43 1
     8    3    4 1
     9    3   21 1
    10    3   44 1
    11    4    5 1
    12    4   13 1
    13    4   45 1
    14    5    6 1
    15    5   46 1
    16    5   47 1
    17    6    7 1
    18    6   48 1
    19    6   49 1
    20    7   12 ar
    21    7    8 ar
    22    8    9 ar
    23    8   50 1
    24    9   10 ar
    25    9   51 1
    26   10   11 ar
    27   10   52 1
    28   11   12 ar
    29   11   53 1
    30   12   54 1
    31   13   18 ar
    32   13   14 ar
    33   14   15 ar
    34   14   55 1
    35   15   16 ar
    36   15   56 1
    37   16   17 ar
    38   16   19 1
    39   17   18 ar
    40   17   57 1
    41   18   58 1
    42   19   20 1
    43   20   59 1
    44   20   60 1
    45   20   61 1
    46   21   22 1
    47   22   23 2
    48   22   24 1
    49   24   29 1
    50   24   25 1
    51   24   62 1
    52   25   26 1
    53   25   63 1
    54   25   64 1
    55   26   27 1
    56   26   65 1
    57   26   66 1
    58   27   28 1
    59   27   67 1
    60   27   68 1
    61   28   29 1
    62   28   69 1
    63   28   70 1
    64   29   30 am
    65   30   31 2
    66   30   32 1
    67   32   33 2
    68   32   34 1
    69   34   35 1
    70   34   36 1
    71   34   37 1
    72   35   71 1
    73   35   72 1
    74   35   73 1
    75   36   74 1
    76   36   75 1
    77   36   76 1
    78   37   38 1
    79   37   77 1
    80   37   78 1
    81   38   79 1
    82   38   80 1
    83   38   81 1
@<TRIPOS>MOLECULE
CHEMBL357727
   74    77     0     0     0
SMALL
USER_CHARGES

@<TRIPOS>ATOM
      1 C1          0.6936   -1.9078   -1.8742 C.ar      1 <0>        -0.1264
      2 C2          1.5723   -0.8424   -1.9348 C.ar      1 <0>        -0.1170
      3 C3          2.8528   -0.9730   -1.4307 C.ar      1 <0>        -0.1167
      4 C4          3.2545   -2.1689   -0.8655 C.ar      1 <0>        -0.0782
      5 C5          2.3755   -3.2341   -0.8041 C.ar      1 <0>        -0.1190
      6 C6          1.0955   -3.1039   -1.3095 C.ar      1 <0>        -0.1182
      7 C7          4.6508   -2.3117   -0.3169 C.3       1 <0>        -0.0814
      8 C8          4.6632   -1.9052    1.1581 C.3       1 <0>        -0.1091
      9 C9          6.0808   -2.0501    1.7152 C.3       1 <0>        -0.1390
     10 C10         6.0931   -1.6437    3.1902 C.3       1 <0>         0.0937
     11 C11         7.5304   -1.6688    3.7140 C.3       1 <0>        -0.1149
     12 C12         7.5588   -1.1436    5.1508 C.3       1 <0>        -0.1068
     13 C13         8.9961   -1.1687    5.6747 C.3       1 <0>        -0.0700
     14 C14         9.0241   -0.6514    7.0898 C.ar      1 <0>         0.1330
     15 C15         9.5852   -1.4245    8.0888 C.ar      1 <0>        -0.1729
     16 C16         9.6059   -0.9393    9.3873 C.ar      1 <0>        -0.0735
     17 C17         9.0589    0.3110    9.6335 C.ar      1 <0>        -0.1803
     18 C18         8.5153    1.0266    8.5839 C.ar      1 <0>         0.1049
     19 N1          8.5178    0.5358    7.3598 N.ar      1 <0>        -0.4780
     20 O1          5.2956   -2.5595    3.9433 O.3       1 <0>        -0.3463
     21 C19         3.9941   -2.2621    4.0830 C.2       1 <0>         0.4652
     22 O2          3.5469   -1.2575    3.5824 O.2       1 <0>        -0.4594
     23 C20         3.0908   -3.1812    4.8642 C.3       1 <0>         0.1557
     24 C21         2.0037   -3.7398    3.9406 C.3       1 <0>        -0.1253
     25 C22         1.0100   -4.5598    4.7666 C.3       1 <0>        -0.1168
     26 C23         0.3428   -3.6578    5.8075 C.3       1 <0>        -0.1387
     27 C24         1.4110   -3.0982    6.7522 C.3       1 <0>         0.1074
     28 N2          2.4477   -2.4320    5.9522 N.am      1 <0>        -0.5925
     29 C25         2.8021   -1.1578    6.2115 C.2       1 <0>         0.4879
     30 O3          3.5988   -0.5911    5.4924 O.2       1 <0>        -0.4734
     31 C26         2.2147   -0.4433    7.3834 C.2       1 <0>         0.4014
     32 O4          1.1441    0.1182    7.2774 O.2       1 <0>        -0.4133
     33 C27         2.9350   -0.4200    8.6692 C.ar      1 <0>        -0.1690
     34 C28         4.1177   -1.1508    8.8260 C.ar      1 <0>        -0.0594
     35 C29         4.7855   -1.1238   10.0316 C.ar      1 <0>        -0.1270
     36 C30         4.2888   -0.3762   11.0857 C.ar      1 <0>        -0.0768
     37 C31         3.1191    0.3497   10.9385 C.ar      1 <0>        -0.1305
     38 C32         2.4427    0.3377    9.7374 C.ar      1 <0>        -0.0515
     39 H1         -0.3083   -1.8044   -2.2640 H         1 <0>         0.1201
     40 H2          1.2585    0.0919   -2.3763 H         1 <0>         0.1208
     41 H3          3.5395   -0.1409   -1.4787 H         1 <0>         0.1198
     42 H4          2.6894   -4.1685   -0.3629 H         1 <0>         0.1183
     43 H5          0.4088   -3.9362   -1.2618 H         1 <0>         0.1202
     44 H6          4.9739   -3.3484   -0.4108 H         1 <0>         0.0704
     45 H7          5.3288   -1.6677   -0.8769 H         1 <0>         0.0717
     46 H8          4.3401   -0.8685    1.2520 H         1 <0>         0.0719
     47 H9          3.9851   -2.5492    1.7182 H         1 <0>         0.0577
     48 H10         6.4038   -3.0869    1.6213 H         1 <0>         0.0723
     49 H11         6.7588   -1.4061    1.1552 H         1 <0>         0.0802
     50 H12         5.6864   -0.6377    3.2933 H         1 <0>         0.0881
     51 H13         7.9068   -2.6916    3.6936 H         1 <0>         0.0739
     52 H14         8.1578   -1.0381    3.0842 H         1 <0>         0.0837
     53 H15         7.1825   -0.1208    5.1712 H         1 <0>         0.0745
     54 H16         6.9314   -1.7743    5.7807 H         1 <0>         0.0620
     55 H17         9.3725   -2.1915    5.6542 H         1 <0>         0.0786
     56 H18         9.6235   -0.5380    5.0448 H         1 <0>         0.0827
     57 H19        10.0020   -2.3944    7.8608 H         1 <0>         0.1330
     58 H20        10.0374   -1.5214   10.1881 H         1 <0>         0.1331
     59 H21         9.0575    0.7200   10.6330 H         1 <0>         0.1331
     60 H22         8.0873    2.0011    8.7673 H         1 <0>         0.1533
     61 H23         3.6758   -4.0010    5.2810 H         1 <0>         0.1079
     62 H24         1.4806   -2.9162    3.4547 H         1 <0>         0.0830
     63 H25         2.4613   -4.3774    3.1842 H         1 <0>         0.0856
     64 H26         0.2491   -4.9788    4.1081 H         1 <0>         0.0784
     65 H27         1.5380   -5.3684    5.2719 H         1 <0>         0.0718
     66 H28        -0.1647   -2.8349    5.3041 H         1 <0>         0.0740
     67 H29        -0.3818   -4.2370    6.3799 H         1 <0>         0.0858
     68 H30         0.9560   -2.3787    7.4330 H         1 <0>         0.0854
     69 H31         1.8570   -3.9128    7.3229 H         1 <0>         0.0839
     70 H32         4.5062   -1.7348    8.0047 H         1 <0>         0.1245
     71 H33         5.6984   -1.6877   10.1544 H         1 <0>         0.1296
     72 H34         4.8164   -0.3594   12.0279 H         1 <0>         0.1311
     73 H35         2.7378    0.9302   11.7655 H         1 <0>         0.1344
     74 H36         1.5327    0.9081    9.6226 H         1 <0>         0.1373
@<TRIPOS>BOND
     1    1    6 ar
     2    1    2 ar
     3    1   39 1
     4    2    3 ar
     5    2   40 1
     6    3    4 ar
     7    3   41 1
     8    4    5 ar
     9    4    7 1
    10    5    6 ar
    11    5   42 1
    12    6   43 1
    13    7    8 1
    14    7   44 1
    15    7   45 1
    16    8    9 1
    17    8   46 1
    18    8   47 1
    19    9   10 1
    20    9   48 1
    21    9   49 1
    22   10   11 1
    23   10   20 1
    24   10   50 1
    25   11   12 1
    26   11   51 1
    27   11   52 1
    28   12   13 1
    29   12   53 1
    30   12   54 1
    31   13   14 1
    32   13   55 1
    33   13   56 1
    34   14   19 ar
    35   14   15 ar
    36   15   16 ar
    37   15   57 1
    38   16   17 ar
    39   16   58 1
    40   17   18 ar
    41   17   59 1
    42   18   19 ar
    43   18   60 1
    44   20   21 1
    45   21   22 2
    46   21   23 1
    47   23   28 1
    48   23   24 1
    49   23   61 1
    50   24   25 1
    51   24   62 1
    52   24   63 1
    53   25   26 1
    54   25   64 1
    55   25   65 1
    56   26   27 1
    57   26   66 1
    58   26   67 1
    59   27   28 1
    60   27   68 1
    61   27   69 1
    62   28   29 am
    63   29   30 2
    64   29   31 1
    65   31   32 2
    66   31   33 1
    67   33   38 ar
    68   33   34 ar
    69   34   35 ar
    70   34   70 1
    71   35   36 ar
    72   35   71 1
    73   36   37 ar
    74   36   72 1
    75   37   38 ar
    76   37   73 1
    77   38   74 1
@<TRIPOS>MOLECULE
CHEMBL357727__1
   74    77     0     0     0
SMALL
USER_CHARGES

@<TRIPOS>ATOM
      1 C1          0.0068    2.8386    2.0935 C.ar      1 <0>        -0.1296
      2 C2          1.2687    3.3884    1.9658 C.ar      1 <0>        -0.1181
      3 C3          2.3223    2.6067    1.5303 C.ar      1 <0>        -0.1192
      4 C4          2.1142    1.2751    1.2230 C.ar      1 <0>        -0.0619
      5 C5          0.8526    0.7251    1.3516 C.ar      1 <0>        -0.1099
      6 C6         -0.2014    1.5071    1.7858 C.ar      1 <0>        -0.1127
      7 C7          3.2627    0.4232    0.7473 C.3       1 <0>        -0.0785
      8 C8          3.9486   -0.2264    1.9508 C.3       1 <0>        -0.1310
      9 C9          5.1146   -1.0913    1.4679 C.3       1 <0>        -0.1384
     10 C10         5.8004   -1.7410    2.6714 C.3       1 <0>         0.0964
     11 C11         7.0400   -2.5046    2.2012 C.3       1 <0>        -0.1171
     12 C12         7.7946   -3.0494    3.4156 C.3       1 <0>        -0.1093
     13 C13         9.0342   -3.8130    2.9453 C.3       1 <0>        -0.0697
     14 C14         9.7774   -4.3496    4.1415 C.ar      1 <0>         0.1314
     15 C15        10.0635   -5.6997    4.2187 C.ar      1 <0>        -0.1719
     16 C16        10.7476   -6.1831    5.3233 C.ar      1 <0>        -0.0729
     17 C17        11.1201   -5.2864    6.3134 C.ar      1 <0>        -0.1804
     18 C18        10.7993   -3.9503    6.1671 C.ar      1 <0>         0.1025
     19 N1         10.1520   -3.5249    5.0997 N.ar      1 <0>        -0.4817
     20 O1          4.8944   -2.6469    3.3042 O.3       1 <0>        -0.3440
     21 C19         4.1140   -2.1488    4.2761 C.2       1 <0>         0.4555
     22 O2          4.1972   -0.9822    4.5794 O.2       1 <0>        -0.4548
     23 C20         3.1338   -3.0446    4.9888 C.3       1 <0>         0.1580
     24 C21         3.7069   -3.4530    6.3495 C.3       1 <0>        -0.1228
     25 C22         2.6528   -4.2460    7.1253 C.3       1 <0>        -0.1174
     26 C23         1.4232   -3.3665    7.3634 C.3       1 <0>        -0.1392
     27 C24         0.8242   -2.9571    6.0141 C.3       1 <0>         0.1102
     28 N2          1.8728   -2.3220    5.2043 N.am      1 <0>        -0.5988
     29 C25         1.6817   -1.0998    4.6694 C.2       1 <0>         0.4742
     30 O3          2.4602   -0.6705    3.8433 O.2       1 <0>        -0.4438
     31 C26         0.5122   -0.2742    5.0931 C.2       1 <0>         0.4054
     32 O4         -0.5644   -0.4252    4.5538 O.2       1 <0>        -0.4187
     33 C27         0.6652    0.7244    6.1664 C.ar      1 <0>        -0.1674
     34 C28         1.8747    0.8295    6.8619 C.ar      1 <0>        -0.0565
     35 C29         2.0098    1.7660    7.8644 C.ar      1 <0>        -0.1322
     36 C30         0.9527    2.6011    8.1837 C.ar      1 <0>        -0.0791
     37 C31        -0.2473    2.5033    7.5001 C.ar      1 <0>        -0.1341
     38 C32        -0.3964    1.5759    6.4912 C.ar      1 <0>        -0.0522
     39 H1         -0.8155    3.4481    2.4381 H         1 <0>         0.1156
     40 H2          1.4313    4.4287    2.2058 H         1 <0>         0.1165
     41 H3          3.3081    3.0364    1.4298 H         1 <0>         0.1155
     42 H4          0.6899   -0.3152    1.1112 H         1 <0>         0.1114
     43 H5         -1.1872    1.0775    1.8859 H         1 <0>         0.1164
     44 H6          2.8875   -0.3530    0.0803 H         1 <0>         0.0629
     45 H7          3.9800    1.0460    0.2128 H         1 <0>         0.0625
     46 H8          4.3238    0.5497    2.6178 H         1 <0>         0.0649
     47 H9          3.2312   -0.8492    2.4853 H         1 <0>         0.1177
     48 H10         4.7393   -1.8675    0.8009 H         1 <0>         0.0673
     49 H11         5.8319   -0.4686    0.9334 H         1 <0>         0.0730
     50 H12         6.0970   -0.9687    3.3812 H         1 <0>         0.0830
     51 H13         6.7355   -3.3327    1.5611 H         1 <0>         0.0751
     52 H14         7.6901   -1.8324    1.6410 H         1 <0>         0.0843
     53 H15         8.0991   -2.2213    4.0556 H         1 <0>         0.0727
     54 H16         7.1446   -3.7215    3.9757 H         1 <0>         0.0641
     55 H17         8.7297   -4.6411    2.3053 H         1 <0>         0.0798
     56 H18         9.6842   -3.1408    2.3852 H         1 <0>         0.0832
     57 H19         9.7576   -6.3696    3.4287 H         1 <0>         0.1342
     58 H20        10.9846   -7.2331    5.4108 H         1 <0>         0.1341
     59 H21        11.6539   -5.6280    7.1879 H         1 <0>         0.1343
     60 H22        11.0858   -3.2456    6.9337 H         1 <0>         0.1553
     61 H23         2.9471   -3.9339    4.3868 H         1 <0>         0.1082
     62 H24         4.5915   -4.0723    6.2007 H         1 <0>         0.0871
     63 H25         3.9780   -2.5601    6.9129 H         1 <0>         0.0787
     64 H26         2.3641   -5.1258    6.5501 H         1 <0>         0.0720
     65 H27         3.0665   -4.5589    8.0840 H         1 <0>         0.0775
     66 H28         0.6823   -3.9242    7.9361 H         1 <0>         0.0844
     67 H29         1.7157   -2.4744    7.9172 H         1 <0>         0.0724
     68 H30         0.4487   -3.8407    5.4979 H         1 <0>         0.0824
     69 H31         0.0092   -2.2515    6.1751 H         1 <0>         0.0845
     70 H32         2.7000    0.1785    6.6142 H         1 <0>         0.1324
     71 H33         2.9426    1.8482    8.4024 H         1 <0>         0.1303
     72 H34         1.0647    3.3325    8.9704 H         1 <0>         0.1296
     73 H35        -1.0674    3.1581    7.7553 H         1 <0>         0.1319
     74 H36        -1.3316    1.5039    5.9558 H         1 <0>         0.1344
@<TRIPOS>BOND
     1    1    6 ar
     2    1    2 ar
     3    1   39 1
     4    2    3 ar
     5    2   40 1
     6    3    4 ar
     7    3   41 1
     8    4    5 ar
     9    4    7 1
    10    5    6 ar
    11    5   42 1
    12    6   43 1
    13    7    8 1
    14    7   44 1
    15    7   45 1
    16    8    9 1
    17    8   46 1
    18    8   47 1
    19    9   10 1
    20    9   48 1
    21    9   49 1
    22   10   11 1
    23   10   20 1
    24   10   50 1
    25   11   12 1
    26   11   51 1
    27   11   52 1
    28   12   13 1
    29   12   53 1
    30   12   54 1
    31   13   14 1
    32   13   55 1
    33   13   56 1
    34   14   19 ar
    35   14   15 ar
    36   15   16 ar
    37   15   57 1
    38   16   17 ar
    39   16   58 1
    40   17   18 ar
    41   17   59 1
    42   18   19 ar
    43   18   60 1
    44   20   21 1
    45   21   22 2
    46   21   23 1
    47   23   28 1
    48   23   24 1
    49   23   61 1
    50   24   25 1
    51   24   62 1
    52   24   63 1
    53   25   26 1
    54   25   64 1
    55   25   65 1
    56   26   27 1
    57   26   66 1
    58   26   67 1
    59   27   28 1
    60   27   68 1
    61   27   69 1
    62   28   29 am
    63   29   30 2
    64   29   31 1
    65   31   32 2
    66   31   33 1
    67   33   38 ar
    68   33   34 ar
    69   34   35 ar
    70   34   70 1
    71   35   36 ar
    72   35   71 1
    73   36   37 ar
    74   36   72 1
    75   37   38 ar
    76   37   73 1
    77   38   74 1
@<TRIPOS>MOLECULE
CHEMBL357727__2
   74    77     0     0     0
SMALL
USER_CHARGES

@<TRIPOS>ATOM
      1 C1         -1.2642    0.3615    2.1055 C.ar      1 <0>        -0.1290
      2 C2         -0.2487    1.1799    1.6475 C.ar      1 <0>        -0.1114
      3 C3          0.9603    0.6315    1.2620 C.ar      1 <0>        -0.1108
      4 C4          1.1538   -0.7353    1.3349 C.ar      1 <0>        -0.0631
      5 C5          0.1386   -1.5536    1.7938 C.ar      1 <0>        -0.1186
      6 C6         -1.0708   -1.0054    2.1780 C.ar      1 <0>        -0.1177
      7 C7          2.4715   -1.3332    0.9137 C.3       1 <0>        -0.0795
      8 C8          3.4125   -1.3935    2.1186 C.3       1 <0>        -0.1277
      9 C9          4.7503   -2.0006    1.6909 C.3       1 <0>        -0.1389
     10 C10         5.6913   -2.0609    2.8958 C.3       1 <0>         0.0969
     11 C11         6.9820   -2.7804    2.4992 C.3       1 <0>        -0.1173
     12 C12         7.8704   -2.9513    3.7331 C.3       1 <0>        -0.1097
     13 C13         9.1611   -3.6709    3.3366 C.3       1 <0>        -0.0696
     14 C14        10.0362   -3.8391    4.5519 C.ar      1 <0>         0.1313
     15 C15        10.4865   -5.0987    4.9004 C.ar      1 <0>        -0.1725
     16 C16        11.2909   -5.2426    6.0202 C.ar      1 <0>        -0.0730
     17 C17        11.6138   -4.1091    6.7509 C.ar      1 <0>        -0.1806
     18 C18        11.1265   -2.8826    6.3416 C.ar      1 <0>         0.1023
     19 N1         10.3678   -2.7825    5.2675 N.ar      1 <0>        -0.4804
     20 O1          5.9991   -0.7336    3.3268 O.3       1 <0>        -0.3435
     21 C19         5.1874   -0.1879    4.2460 C.2       1 <0>         0.4444
     22 O2          4.2468   -0.8162    4.6707 O.2       1 <0>        -0.4381
     23 C20         5.4493    1.2086    4.7484 C.3       1 <0>         0.1587
     24 C21         6.0393    1.1441    6.1607 C.3       1 <0>        -0.1230
     25 C22         6.1730    2.5628    6.7187 C.3       1 <0>        -0.1176
     26 C23         4.7898    3.2124    6.8023 C.3       1 <0>        -0.1378
     27 C24         4.1856    3.3003    5.3973 C.3       1 <0>         0.1105
     28 N2          4.1872    1.9593    4.7970 N.am      1 <0>        -0.5938
     29 C25         3.0525    1.4279    4.3004 C.2       1 <0>         0.4632
     30 O3          3.0593    0.3051    3.8396 O.2       1 <0>        -0.4397
     31 C26         1.7874    2.2204    4.3171 C.2       1 <0>         0.4043
     32 O4          1.5601    3.0193    3.4323 O.2       1 <0>        -0.4163
     33 C27         0.8144    2.0325    5.4082 C.ar      1 <0>        -0.1668
     34 C28         1.0238    1.0424    6.3743 C.ar      1 <0>        -0.0583
     35 C29         0.1091    0.8729    7.3916 C.ar      1 <0>        -0.1314
     36 C30        -1.0143    1.6793    7.4589 C.ar      1 <0>        -0.0799
     37 C31        -1.2286    2.6613    6.5068 C.ar      1 <0>        -0.1333
     38 C32        -0.3204    2.8471    5.4865 C.ar      1 <0>        -0.0535
     39 H1         -2.2072    0.7904    2.4110 H         1 <0>         0.1151
     40 H2         -0.3999    2.2478    1.5905 H         1 <0>         0.1168
     41 H3          1.7534    1.2709    0.9035 H         1 <0>         0.1115
     42 H4          0.2898   -2.6215    1.8505 H         1 <0>         0.1154
     43 H5         -1.8641   -1.6448    2.5361 H         1 <0>         0.1163
     44 H6          2.3074   -2.3402    0.5301 H         1 <0>         0.0632
     45 H7          2.9181   -0.7157    0.1344 H         1 <0>         0.0632
     46 H8          3.5766   -0.3865    2.5022 H         1 <0>         0.1118
     47 H9          2.9659   -2.0110    2.8979 H         1 <0>         0.0663
     48 H10         4.5862   -3.0075    1.3073 H         1 <0>         0.0729
     49 H11         5.1969   -1.3831    0.9116 H         1 <0>         0.0676
     50 H12         5.2076   -2.6036    3.7079 H         1 <0>         0.0812
     51 H13         6.7400   -3.7602    2.0873 H         1 <0>         0.0824
     52 H14         7.5107   -2.1916    1.7496 H         1 <0>         0.0766
     53 H15         8.1125   -1.9716    4.1450 H         1 <0>         0.0794
     54 H16         7.3418   -3.5401    4.4827 H         1 <0>         0.0578
     55 H17         8.9191   -4.6506    2.9247 H         1 <0>         0.0785
     56 H18         9.6898   -3.0821    2.5870 H         1 <0>         0.0844
     57 H19        10.2147   -5.9598    4.3079 H         1 <0>         0.1338
     58 H20        11.6571   -6.2144    6.3166 H         1 <0>         0.1340
     59 H21        12.2380   -4.1841    7.6291 H         1 <0>         0.1343
     60 H22        11.3734   -1.9951    6.9053 H         1 <0>         0.1555
     61 H23         6.1484    1.7120    4.0807 H         1 <0>         0.1084
     62 H24         5.3804    0.5607    6.8039 H         1 <0>         0.0787
     63 H25         7.0219    0.6737    6.1233 H         1 <0>         0.0884
     64 H26         6.6155    2.5214    7.7140 H         1 <0>         0.0776
     65 H27         6.8121    3.1527    6.0616 H         1 <0>         0.0721
     66 H28         4.1427    2.6096    7.4395 H         1 <0>         0.0724
     67 H29         4.8830    4.2142    7.2216 H         1 <0>         0.0844
     68 H30         3.1624    3.6705    5.4621 H         1 <0>         0.0829
     69 H31         4.7826    3.9757    4.7845 H         1 <0>         0.0816
     70 H32         1.8994    0.4123    6.3230 H         1 <0>         0.1316
     71 H33         0.2690    0.1088    8.1380 H         1 <0>         0.1300
     72 H34        -1.7274    1.5413    8.2582 H         1 <0>         0.1293
     73 H35        -2.1075    3.2861    6.5659 H         1 <0>         0.1315
     74 H36        -0.4866    3.6165    4.7471 H         1 <0>         0.1341
@<TRIPOS>BOND
     1    1    6 ar
     2    1    2 ar
     3    1   39 1
     4    2    3 ar
     5    2   40 1
     6    3    4 ar
     7    3   41 1
     8    4    5 ar
     9    4    7 1
    10    5    6 ar
    11    5   42 1
    12    6   43 1
    13    7    8 1
    14    7   44 1
    15    7   45 1
    16    8    9 1
    17    8   46 1
    18    8   47 1
    19    9   10 1
    20    9   48 1
    21    9   49 1
    22   10   11 1
    23   10   20 1
    24   10   50 1
    25   11   12 1
    26   11   51 1
    27   11   52 1
    28   12   13 1
    29   12   53 1
    30   12   54 1
    31   13   14 1
    32   13   55 1
    33   13   56 1
    34   14   19 ar
    35   14   15 ar
    36   15   16 ar
    37   15   57 1
    38   16   17 ar
    39   16   58 1
    40   17   18 ar
    41   17   59 1
    42   18   19 ar
    43   18   60 1
    44   20   21 1
    45   21   22 2
    46   21   23 1
    47   23   28 1
    48   23   24 1
    49   23   61 1
    50   24   25 1
    51   24   62 1
    52   24   63 1
    53   25   26 1
    54   25   64 1
    55   25   65 1
    56   26   27 1
    57   26   66 1
    58   26   67 1
    59   27   28 1
    60   27   68 1
    61   27   69 1
    62   28   29 am
    63   29   30 2
    64   29   31 1
    65   31   32 2
    66   31   33 1
    67   33   38 ar
    68   33   34 ar
    69   34   35 ar
    70   34   70 1
    71   35   36 ar
    72   35   71 1
    73   36   37 ar
    74   36   72 1
    75   37   38 ar
    76   37   73 1
    77   38   74 1
@<TRIPOS>MOLECULE
CHEMBL357727__3
   74    77     0     0     0
SMALL
USER_CHARGES

@<TRIPOS>ATOM
      1 C1          3.1611    1.4386   -2.1802 C.ar      1 <0>        -0.1263
      2 C2          4.3335    1.9222   -1.6303 C.ar      1 <0>        -0.1181
      3 C3          5.1955    1.0629   -0.9750 C.ar      1 <0>        -0.1188
      4 C4          4.8849   -0.2799   -0.8691 C.ar      1 <0>        -0.0783
      5 C5          3.7120   -0.7634   -1.4182 C.ar      1 <0>        -0.1168
      6 C6          2.8507    0.0957   -2.0748 C.ar      1 <0>        -0.1171
      7 C7          5.8251   -1.2168   -0.1555 C.3       1 <0>        -0.0813
      8 C8          5.4565   -1.2771    1.3282 C.3       1 <0>        -0.1092
      9 C9          6.4110   -2.2283    2.0526 C.3       1 <0>        -0.1391
     10 C10         6.0424   -2.2886    3.5363 C.3       1 <0>         0.0939
     11 C11         6.9149   -3.3322    4.2367 C.3       1 <0>        -0.1151
     12 C12         6.4630   -3.4820    5.6907 C.3       1 <0>        -0.1079
     13 C13         7.3355   -4.5256    6.3910 C.3       1 <0>        -0.0695
     14 C14         6.8904   -4.6731    7.8232 C.ar      1 <0>         0.1328
     15 C15         6.5529   -5.9226    8.3084 C.ar      1 <0>        -0.1719
     16 C16         6.1447   -6.0475    9.6273 C.ar      1 <0>        -0.0729
     17 C17         6.0909   -4.9057   10.4125 C.ar      1 <0>        -0.1806
     18 C18         6.4435   -3.6901    9.8581 C.ar      1 <0>         0.1019
     19 N1          6.8325   -3.6096    8.6005 N.ar      1 <0>        -0.4786
     20 O1          6.2590   -1.0085    4.1333 O.3       1 <0>        -0.3432
     21 C19         5.2285   -0.1484    4.1217 C.2       1 <0>         0.4656
     22 O2          4.1774   -0.4717    3.6212 O.2       1 <0>        -0.4622
     23 C20         5.3826    1.2205    4.7329 C.3       1 <0>         0.1563
     24 C21         5.3719    2.2807    3.6272 C.3       1 <0>        -0.1252
     25 C22         5.3885    3.6735    4.2613 C.3       1 <0>        -0.1166
     26 C23         4.1360    3.8594    5.1209 C.3       1 <0>        -0.1399
     27 C24         4.1327    2.8170    6.2435 C.3       1 <0>         0.1093
     28 N2          4.2628    1.4802    5.6479 N.am      1 <0>        -0.5924
     29 C25         3.3720    0.5106    5.9356 C.2       1 <0>         0.4900
     30 O3          3.5398   -0.6134    5.5097 O.2       1 <0>        -0.4756
     31 C26         2.1788    0.8193    6.7781 C.2       1 <0>         0.4012
     32 O4          1.1749    1.2700    6.2664 O.2       1 <0>        -0.4124
     33 C27         2.2199    0.5765    8.2313 C.ar      1 <0>        -0.1721
     34 C28         3.3346   -0.0402    8.8099 C.ar      1 <0>        -0.0600
     35 C29         3.3654   -0.2638   10.1699 C.ar      1 <0>        -0.1281
     36 C30         2.2973    0.1201   10.9626 C.ar      1 <0>        -0.0782
     37 C31         1.1906    0.7308   10.3976 C.ar      1 <0>        -0.1316
     38 C32         1.1470    0.9666    9.0401 C.ar      1 <0>        -0.0530
     39 H1          2.4855    2.1107   -2.6883 H         1 <0>         0.1201
     40 H2          4.5763    2.9713   -1.7130 H         1 <0>         0.1203
     41 H3          6.1119    1.4407   -0.5460 H         1 <0>         0.1184
     42 H4          3.4695   -1.8125   -1.3358 H         1 <0>         0.1196
     43 H5          1.9345   -0.2821   -2.5041 H         1 <0>         0.1207
     44 H6          5.7449   -2.2130   -0.5906 H         1 <0>         0.0715
     45 H7          6.8480   -0.8554   -0.2614 H         1 <0>         0.0706
     46 H8          5.5366   -0.2809    1.7632 H         1 <0>         0.0581
     47 H9          4.4336   -1.6385    1.4340 H         1 <0>         0.0714
     48 H10         6.3308   -3.2245    1.6176 H         1 <0>         0.0798
     49 H11         7.4339   -1.8669    1.9468 H         1 <0>         0.0729
     50 H12         4.9929   -2.5645    3.6390 H         1 <0>         0.0864
     51 H13         6.8171   -4.2898    3.7253 H         1 <0>         0.0821
     52 H14         7.9563   -3.0113    4.2111 H         1 <0>         0.0759
     53 H15         6.5608   -2.5243    6.2021 H         1 <0>         0.0785
     54 H16         5.4216   -3.8028    5.7163 H         1 <0>         0.0592
     55 H17         7.2377   -5.4832    5.8797 H         1 <0>         0.0779
     56 H18         8.3769   -4.2047    6.3655 H         1 <0>         0.0836
     57 H19         6.6062   -6.7906    7.6680 H         1 <0>         0.1335
     58 H20         5.8746   -7.0110   10.0336 H         1 <0>         0.1336
     59 H21         5.7771   -4.9658   11.4441 H         1 <0>         0.1336
     60 H22         6.4043   -2.7962   10.4629 H         1 <0>         0.1535
     61 H23         6.3228    1.2717    5.2821 H         1 <0>         0.1096
     62 H24         6.2524    2.1576    2.9966 H         1 <0>         0.0867
     63 H25         4.4721    2.1669    3.0227 H         1 <0>         0.0813
     64 H26         6.2760    3.7778    4.8854 H         1 <0>         0.0724
     65 H27         5.4058    4.4296    3.4764 H         1 <0>         0.0782
     66 H28         4.1368    4.8599    5.5534 H         1 <0>         0.0855
     67 H29         3.2478    3.7307    4.5023 H         1 <0>         0.0737
     68 H30         4.9710    3.0010    6.9154 H         1 <0>         0.0854
     69 H31         3.1965    2.8804    6.7982 H         1 <0>         0.0838
     70 H32         4.1685   -0.3404    8.1928 H         1 <0>         0.1288
     71 H33         4.2250   -0.7400   10.6180 H         1 <0>         0.1322
     72 H34         2.3273   -0.0582   12.0274 H         1 <0>         0.1314
     73 H35         0.3612    1.0270   11.0227 H         1 <0>         0.1339
     74 H36         0.2850    1.4471    8.6015 H         1 <0>         0.1367
@<TRIPOS>BOND
     1    1    6 ar
     2    1    2 ar
     3    1   39 1
     4    2    3 ar
     5    2   40 1
     6    3    4 ar
     7    3   41 1
     8    4    5 ar
     9    4    7 1
    10    5    6 ar
    11    5   42 1
    12    6   43 1
    13    7    8 1
    14    7   44 1
    15    7   45 1
    16    8    9 1
    17    8   46 1
    18    8   47 1
    19    9   10 1
    20    9   48 1
    21    9   49 1
    22   10   11 1
    23   10   20 1
    24   10   50 1
    25   11   12 1
    26   11   51 1
    27   11   52 1
    28   12   13 1
    29   12   53 1
    30   12   54 1
    31   13   14 1
    32   13   55 1
    33   13   56 1
    34   14   19 ar
    35   14   15 ar
    36   15   16 ar
    37   15   57 1
    38   16   17 ar
    39   16   58 1
    40   17   18 ar
    41   17   59 1
    42   18   19 ar
    43   18   60 1
    44   20   21 1
    45   21   22 2
    46   21   23 1
    47   23   28 1
    48   23   24 1
    49   23   61 1
    50   24   25 1
    51   24   62 1
    52   24   63 1
    53   25   26 1
    54   25   64 1
    55   25   65 1
    56   26   27 1
    57   26   66 1
    58   26   67 1
    59   27   28 1
    60   27   68 1
    61   27   69 1
    62   28   29 am
    63   29   30 2
    64   29   31 1
    65   31   32 2
    66   31   33 1
    67   33   38 ar
    68   33   34 ar
    69   34   35 ar
    70   34   70 1
    71   35   36 ar
    72   35   71 1
    73   36   37 ar
    74   36   72 1
    75   37   38 ar
    76   37   73 1
    77   38   74 1
@<TRIPOS>MOLECULE
CHEMBL286230
   59    61     0     0     0
SMALL
USER_CHARGES

@<TRIPOS>ATOM
      1 C1         -1.5584   -3.4623    0.3597 C.3       1 <0>         0.0269
      2 O1         -1.3509   -4.5341   -0.5623 O.3       1 <0>        -0.3184
      3 C2         -0.4958   -4.3043   -1.5933 C.ar      1 <0>         0.1241
      4 C3          0.1350   -3.0744   -1.7118 C.ar      1 <0>        -0.2065
      5 C4          1.0042   -2.8433   -2.7604 C.ar      1 <0>        -0.0750
      6 C5          1.2452   -3.8365   -3.6917 C.ar      1 <0>        -0.1203
      7 C6          0.6174   -5.0629   -3.5761 C.ar      1 <0>        -0.0746
      8 C7         -0.2479   -5.3010   -2.5258 C.ar      1 <0>        -0.1493
      9 C8          2.1934   -3.5816   -4.8349 C.3       1 <0>        -0.0723
     10 C9          3.6111   -3.9807   -4.4203 C.3       1 <0>        -0.1146
     11 C10         4.5738   -3.7219   -5.5810 C.3       1 <0>         0.0668
     12 O2          5.8979   -4.0947   -5.1938 O.3       1 <0>        -0.3309
     13 C11         6.8689   -3.9288   -6.1056 C.2       1 <0>         0.4760
     14 O3          6.6034   -3.4818   -7.1963 O.2       1 <0>        -0.5162
     15 C12         8.2901   -4.2999   -5.7688 C.3       1 <0>         0.1639
     16 C13         9.1549   -3.0361   -5.7274 C.3       1 <0>        -0.1263
     17 C14        10.6192   -3.4312   -5.5232 C.3       1 <0>        -0.1157
     18 C15        11.0843   -4.2965   -6.6968 C.3       1 <0>        -0.1407
     19 C16        10.2414   -5.5746   -6.7492 C.3       1 <0>         0.1186
     20 N1          8.8209   -5.2025   -6.7995 N.pl3     1 <0>        -0.9920
     21 S1          7.8368   -5.7894   -7.9951 S.o2      1 <0>         2.6022
     22 O4          8.4756   -6.9783   -8.4395 O.2       1 <0>        -0.9483
     23 O5          6.5432   -5.8378   -7.4088 O.2       1 <0>        -0.9447
     24 C17         7.8850   -4.5292   -9.2990 C.3       1 <0>        -0.5779
     25 C18         7.0147   -4.9638  -10.4500 C.ar      1 <0>        -0.0918
     26 C19         7.5510   -5.7208  -11.4748 C.ar      1 <0>        -0.1082
     27 C20         6.7527   -6.1194  -12.5305 C.ar      1 <0>        -0.1190
     28 C21         5.4178   -5.7613  -12.5613 C.ar      1 <0>        -0.1103
     29 C22         4.8813   -5.0050  -11.5361 C.ar      1 <0>        -0.1197
     30 C23         5.6786   -4.6101  -10.4782 C.ar      1 <0>        -0.0979
     31 H1         -0.6090   -3.1913    0.8215 H         1 <0>         0.0557
     32 H2         -1.9637   -2.6004   -0.1703 H         1 <0>         0.0556
     33 H3         -2.2608   -3.7776    1.1312 H         1 <0>         0.1009
     34 H4         -0.0534   -2.2980   -0.9850 H         1 <0>         0.1279
     35 H5          1.4955   -1.8861   -2.8530 H         1 <0>         0.1246
     36 H6          0.8070   -5.8370   -4.3050 H         1 <0>         0.1303
     37 H7         -0.7346   -6.2607   -2.4335 H         1 <0>         0.1312
     38 H8          1.8878   -4.1717   -5.6989 H         1 <0>         0.0773
     39 H9          2.1749   -2.5228   -5.0931 H         1 <0>         0.0750
     40 H10         3.9167   -3.3906   -3.5563 H         1 <0>         0.0748
     41 H11         3.6296   -5.0395   -4.1621 H         1 <0>         0.0782
     42 H12         4.2682   -4.3120   -6.4450 H         1 <0>         0.0799
     43 H13         4.5553   -2.6631   -5.8392 H         1 <0>         0.0683
     44 H14         8.3181   -4.7963   -4.7988 H         1 <0>         0.1147
     45 H15         9.0520   -2.4939   -6.6674 H         1 <0>         0.0813
     46 H16         8.8312   -2.4006   -4.9031 H         1 <0>         0.0862
     47 H17        11.2336   -2.5326   -5.4688 H         1 <0>         0.0765
     48 H18        10.7173   -3.9947   -4.5954 H         1 <0>         0.0722
     49 H19        10.9632   -3.7425   -7.6277 H         1 <0>         0.0703
     50 H20        12.1338   -4.5581   -6.5624 H         1 <0>         0.0841
     51 H21        10.5008   -6.1472   -7.6396 H         1 <0>         0.0991
     52 H22        10.4308   -6.1740   -5.8587 H         1 <0>         0.0820
     53 H23         7.5178   -3.5824   -8.9031 H         1 <0>         0.1676
     54 H24         8.9108   -4.4046   -9.6460 H         1 <0>         0.1325
     55 H25         8.5939   -6.0005  -11.4507 H         1 <0>         0.1281
     56 H26         7.1719   -6.7102  -13.3315 H         1 <0>         0.1291
     57 H27         4.7943   -6.0721  -13.3865 H         1 <0>         0.1274
     58 H28         3.8385   -4.7250  -11.5603 H         1 <0>         0.1285
     59 H29         5.2586   -4.0224   -9.6753 H         1 <0>         0.1329
@<TRIPOS>BOND
     1    1    2 1
     2    1   31 1
     3    1   32 1
     4    1   33 1
     5    2    3 1
     6    3    8 ar
     7    3    4 ar
     8    4    5 ar
     9    4   34 1
    10    5    6 ar
    11    5   35 1
    12    6    7 ar
    13    6    9 1
    14    7    8 ar
    15    7   36 1
    16    8   37 1
    17    9   10 1
    18    9   38 1
    19    9   39 1
    20   10   11 1
    21   10   40 1
    22   10   41 1
    23   11   12 1
    24   11   42 1
    25   11   43 1
    26   12   13 1
    27   13   14 2
    28   13   15 1
    29   15   20 1
    30   15   16 1
    31   15   44 1
    32   16   17 1
    33   16   45 1
    34   16   46 1
    35   17   18 1
    36   17   47 1
    37   17   48 1
    38   18   19 1
    39   18   49 1
    40   18   50 1
    41   19   20 1
    42   19   51 1
    43   19   52 1
    44   20   21 1
    45   21   22 2
    46   21   23 2
    47   21   24 1
    48   24   25 1
    49   24   53 1
    50   24   54 1
    51   25   30 ar
    52   25   26 ar
    53   26   27 ar
    54   26   55 1
    55   27   28 ar
    56   27   56 1
    57   28   29 ar
    58   28   57 1
    59   29   30 ar
    60   29   58 1
    61   30   59 1
@<TRIPOS>MOLECULE
CHEMBL286230__1
   59    61     0     0     0
SMALL
USER_CHARGES

@<TRIPOS>ATOM
      1 C1          2.0485    5.3024   -7.1829 C.3       1 <0>         0.0267
      2 O1          1.9501    4.5392   -5.9788 O.3       1 <0>        -0.3185
      3 C2          2.2405    3.2143   -6.0627 C.ar      1 <0>         0.1242
      4 C3          2.6182    2.6613   -7.2777 C.ar      1 <0>        -0.2059
      5 C4          2.9134    1.3143   -7.3602 C.ar      1 <0>        -0.0743
      6 C5          2.8323    0.5173   -6.2333 C.ar      1 <0>        -0.1204
      7 C6          2.4557    1.0659   -5.0213 C.ar      1 <0>        -0.0753
      8 C7          2.1654    2.4136   -4.9323 C.ar      1 <0>        -0.1501
      9 C8          3.1544   -0.9520   -6.3263 C.3       1 <0>        -0.0722
     10 C9          4.6454   -1.1652   -6.0574 C.3       1 <0>        -0.1146
     11 C10         4.9724   -2.6569   -6.1519 C.3       1 <0>         0.0668
     12 O2          6.3650   -2.8560   -5.9007 O.3       1 <0>        -0.3309
     13 C11         6.8179   -4.1188   -5.9462 C.2       1 <0>         0.4760
     14 O3          6.0572   -5.0250   -6.1912 O.2       1 <0>        -0.5162
     15 C12         8.2752   -4.4062   -5.6918 C.3       1 <0>         0.1639
     16 C13         8.4221   -5.2036   -4.3921 C.3       1 <0>        -0.1264
     17 C14         9.8860   -5.6117   -4.2114 C.3       1 <0>        -0.1157
     18 C15        10.3161   -6.5049   -5.3773 C.3       1 <0>        -0.1407
     19 C16        10.1906   -5.7222   -6.6882 C.3       1 <0>         0.1186
     20 N1          8.8209   -5.2025   -6.7995 N.pl3     1 <0>        -0.9920
     21 S1          7.9093   -5.5086   -8.1477 S.o2      1 <0>         2.6022
     22 O4          7.0321   -4.3956   -8.2526 O.2       1 <0>        -0.9448
     23 O5          8.8563   -5.7835   -9.1709 O.2       1 <0>        -0.9484
     24 C17         6.9709   -7.0080   -7.7455 C.3       1 <0>        -0.5778
     25 C18         6.0972   -7.3826   -8.9149 C.ar      1 <0>        -0.0917
     26 C19         4.8141   -6.8770   -9.0089 C.ar      1 <0>        -0.0981
     27 C20         4.0127   -7.2206  -10.0815 C.ar      1 <0>        -0.1198
     28 C21         4.4945   -8.0695  -11.0603 C.ar      1 <0>        -0.1103
     29 C22         5.7780   -8.5743  -10.9668 C.ar      1 <0>        -0.1190
     30 C23         6.5809   -8.2273   -9.8964 C.ar      1 <0>        -0.1080
     31 H1          3.0683    5.2497   -7.5642 H         1 <0>         0.0559
     32 H2          1.3614    4.8985   -7.9264 H         1 <0>         0.0558
     33 H3          1.7910    6.3413   -6.9767 H         1 <0>         0.1010
     34 H4          2.6810    3.2833   -8.1584 H         1 <0>         0.1282
     35 H5          3.2074    0.8833   -8.3059 H         1 <0>         0.1255
     36 H6          2.3927    0.4412   -4.1426 H         1 <0>         0.1295
     37 H7          1.8756    2.8425   -3.9844 H         1 <0>         0.1309
     38 H8          2.5699   -1.4996   -5.5870 H         1 <0>         0.0759
     39 H9          2.9096   -1.3151   -7.3245 H         1 <0>         0.0763
     40 H10         5.2299   -0.6176   -6.7968 H         1 <0>         0.0773
     41 H11         4.8902   -0.8021   -5.0593 H         1 <0>         0.0756
     42 H12         4.3879   -3.2045   -5.4125 H         1 <0>         0.0687
     43 H13         4.7276   -3.0200   -7.1500 H         1 <0>         0.0795
     44 H14         8.8241   -3.4679   -5.6113 H         1 <0>         0.1147
     45 H15         8.1097   -4.5868   -3.5495 H         1 <0>         0.0864
     46 H16         7.7989   -6.0966   -4.4407 H         1 <0>         0.0813
     47 H17        10.5115   -4.7193   -4.1876 H         1 <0>         0.0722
     48 H18         9.9977   -6.1582   -3.2749 H         1 <0>         0.0765
     49 H19        11.3517   -6.8142   -5.2359 H         1 <0>         0.0841
     50 H20         9.6750   -7.3856   -5.4166 H         1 <0>         0.0703
     51 H21        10.8973   -4.8923   -6.6873 H         1 <0>         0.0820
     52 H22        10.4004   -6.3826   -7.5296 H         1 <0>         0.0990
     53 H23         7.6624   -7.8232   -7.5328 H         1 <0>         0.1326
     54 H24         6.3475   -6.8227   -6.8708 H         1 <0>         0.1675
     55 H25         4.4376   -6.2138   -8.2441 H         1 <0>         0.1330
     56 H26         3.0099   -6.8262  -10.1546 H         1 <0>         0.1284
     57 H27         3.8682   -8.3385  -11.8980 H         1 <0>         0.1274
     58 H28         6.1544   -9.2378  -11.7314 H         1 <0>         0.1291
     59 H29         7.5850   -8.6188   -9.8252 H         1 <0>         0.1282
@<TRIPOS>BOND
     1    1    2 1
     2    1   31 1
     3    1   32 1
     4    1   33 1
     5    2    3 1
     6    3    8 ar
     7    3    4 ar
     8    4    5 ar
     9    4   34 1
    10    5    6 ar
    11    5   35 1
    12    6    7 ar
    13    6    9 1
    14    7    8 ar
    15    7   36 1
    16    8   37 1
    17    9   10 1
    18    9   38 1
    19    9   39 1
    20   10   11 1
    21   10   40 1
    22   10   41 1
    23   11   12 1
    24   11   42 1
    25   11   43 1
    26   12   13 1
    27   13   14 2
    28   13   15 1
    29   15   20 1
    30   15   16 1
    31   15   44 1
    32   16   17 1
    33   16   45 1
    34   16   46 1
    35   17   18 1
    36   17   47 1
    37   17   48 1
    38   18   19 1
    39   18   49 1
    40   18   50 1
    41   19   20 1
    42   19   51 1
    43   19   52 1
    44   20   21 1
    45   21   22 2
    46   21   23 2
    47   21   24 1
    48   24   25 1
    49   24   53 1
    50   24   54 1
    51   25   30 ar
    52   25   26 ar
    53   26   27 ar
    54   26   55 1
    55   27   28 ar
    56   27   56 1
    57   28   29 ar
    58   28   57 1
    59   29   30 ar
    60   29   58 1
    61   30   59 1
@<TRIPOS>MOLECULE
CHEMBL432085
   56    58     0     0     0
SMALL
USER_CHARGES

@<TRIPOS>ATOM
      1 C1          1.9391   -1.0322   -1.3165 C.3       1 <0>         0.0268
      2 O1          2.2723   -2.3706   -0.9428 O.3       1 <0>        -0.3184
      3 C2          2.6695   -2.5720    0.3411 C.ar      1 <0>         0.1240
      4 C3          2.7317   -1.5043    1.2248 C.ar      1 <0>        -0.2063
      5 C4          3.1353   -1.7116    2.5295 C.ar      1 <0>        -0.0749
      6 C5          3.4777   -2.9819    2.9549 C.ar      1 <0>        -0.1199
      7 C6          3.4170   -4.0476    2.0761 C.ar      1 <0>        -0.0749
      8 C7          3.0080   -3.8465    0.7719 C.ar      1 <0>        -0.1494
      9 C8          3.9181   -3.2052    4.3787 C.3       1 <0>        -0.0736
     10 C9          2.6981   -3.5205    5.2465 C.3       1 <0>        -0.1125
     11 C10         3.1453   -3.7472    6.6920 C.3       1 <0>         0.0639
     12 O2          2.0058   -4.0416    7.5025 O.3       1 <0>        -0.3479
     13 C11         2.2278   -4.2680    8.8068 C.2       1 <0>         0.4514
     14 O3          3.3524   -4.2178    9.2458 O.2       1 <0>        -0.4890
     15 C12         1.0745   -4.5847    9.7236 C.3       1 <0>         0.1631
     16 H1          0.3043   -5.1280    9.1761 H         1 <0>         0.1130
     17 C13         0.4872   -3.2787   10.2988 C.3       1 <0>        -0.1157
     18 C14         0.1458   -3.6658   11.7619 C.3       1 <0>        -0.1291
     19 C15         1.3032   -4.6367   12.1048 C.3       1 <0>         0.1162
     20 N1          1.5450   -5.3924   10.8585 N.pl3     1 <0>        -0.9979
     21 S1          2.2306   -6.8962   10.7543 S.o2      1 <0>         2.6152
     22 O4          2.6831   -6.9962    9.4110 O.2       1 <0>        -0.9378
     23 O5          3.1518   -6.9504   11.8349 O.2       1 <0>        -0.9337
     24 C16         0.8629   -8.0529   11.0406 C.3       1 <0>        -0.5822
     25 C17         1.3863   -9.4659   11.0150 C.ar      1 <0>        -0.0984
     26 C18         1.4298  -10.1653    9.8234 C.ar      1 <0>        -0.1047
     27 C19         1.9099  -11.4614    9.7998 C.ar      1 <0>        -0.1167
     28 C20         2.3468  -12.0579   10.9678 C.ar      1 <0>        -0.1076
     29 C21         2.3041  -11.3582   12.1592 C.ar      1 <0>        -0.1167
     30 C22         1.8280  -10.0606   12.1820 C.ar      1 <0>        -0.1035
     31 H2          2.8070   -0.3884   -1.1741 H         1 <0>         0.0557
     32 H3          1.6393   -1.0114   -2.3643 H         1 <0>         0.1009
     33 H4          1.1167   -0.6758   -0.6962 H         1 <0>         0.0557
     34 H5          2.4651   -0.5118    0.8928 H         1 <0>         0.1280
     35 H6          3.1839   -0.8808    3.2178 H         1 <0>         0.1248
     36 H7          3.6852   -5.0388    2.4107 H         1 <0>         0.1301
     37 H8          2.9565   -4.6800    0.0871 H         1 <0>         0.1311
     38 H9          4.6164   -4.0413    4.4161 H         1 <0>         0.0771
     39 H10         4.4076   -2.3060    4.7529 H         1 <0>         0.0754
     40 H11         1.9998   -2.6844    5.2091 H         1 <0>         0.0757
     41 H12         2.2087   -4.4197    4.8723 H         1 <0>         0.0775
     42 H13         3.8436   -4.5832    6.7294 H         1 <0>         0.0723
     43 H14         3.6347   -2.8480    7.0662 H         1 <0>         0.0682
     44 H15         1.2277   -2.4792   10.2741 H         1 <0>         0.0846
     45 H16        -0.4129   -2.9889    9.7565 H         1 <0>         0.1006
     46 H17         0.1641   -2.7911   12.4120 H         1 <0>         0.0937
     47 H18        -0.8180   -4.1718   11.8175 H         1 <0>         0.0847
     48 H19         2.1947   -4.0784   12.3904 H         1 <0>         0.0807
     49 H20         1.0058   -5.3137   12.9056 H         1 <0>         0.0835
     50 H21         0.4127   -7.8498   12.0123 H         1 <0>         0.1420
     51 H22         0.1127   -7.9291   10.2596 H         1 <0>         0.1424
     52 H23         1.0885   -9.6992    8.9109 H         1 <0>         0.1306
     53 H24         1.9433  -12.0080    8.8690 H         1 <0>         0.1308
     54 H25         2.7212  -13.0708   10.9495 H         1 <0>         0.1292
     55 H26         2.6451  -11.8244   13.0718 H         1 <0>         0.1310
     56 H27         1.7981   -9.5127   13.1122 H         1 <0>         0.1304
@<TRIPOS>BOND
     1    1    2 1
     2    1   31 1
     3    1   32 1
     4    1   33 1
     5    2    3 1
     6    3    8 ar
     7    3    4 ar
     8    4    5 ar
     9    4   34 1
    10    5    6 ar
    11    5   35 1
    12    6    7 ar
    13    6    9 1
    14    7    8 ar
    15    7   36 1
    16    8   37 1
    17    9   10 1
    18    9   38 1
    19    9   39 1
    20   10   11 1
    21   10   40 1
    22   10   41 1
    23   11   12 1
    24   11   42 1
    25   11   43 1
    26   12   13 1
    27   13   14 2
    28   13   15 1
    29   15   16 1
    30   15   20 1
    31   15   17 1
    32   17   18 1
    33   17   44 1
    34   17   45 1
    35   18   19 1
    36   18   46 1
    37   18   47 1
    38   19   20 1
    39   19   48 1
    40   19   49 1
    41   20   21 1
    42   21   22 2
    43   21   23 2
    44   21   24 1
    45   24   25 1
    46   24   50 1
    47   24   51 1
    48   25   30 ar
    49   25   26 ar
    50   26   27 ar
    51   26   52 1
    52   27   28 ar
    53   27   53 1
    54   28   29 ar
    55   28   54 1
    56   29   30 ar
    57   29   55 1
    58   30   56 1
@<TRIPOS>MOLECULE
CHEMBL372289
   60    64     0     0     0
SMALL
USER_CHARGES

@<TRIPOS>ATOM
      1 C1         -0.1196    1.0261   -0.1537 C.3       1 <0>         0.0252
      2 O1         -0.1692   -0.3967   -0.0311 O.3       1 <0>        -0.3099
      3 C2          0.4720   -0.9466    1.0322 C.ar      1 <0>         0.1791
      4 C3          0.4383   -2.3197    1.2356 C.ar      1 <0>        -0.1788
      5 C4          1.1296   -2.8715    2.2892 C.ar      1 <0>         0.0013
      6 C5          1.8869   -2.0790    3.1449 C.ar      1 <0>        -0.1657
      7 C6          1.8211   -0.7058    3.0114 C.ar      1 <0>         0.1912
      8 C7          1.1355   -0.1400    1.9402 C.ar      1 <0>        -0.3052
      9 O2          2.3560    0.1328    3.9392 O.3       1 <0>        -0.3084
     10 C8          2.2283    1.5352    3.6965 C.3       1 <0>         0.0236
     11 C9          2.7661   -2.7762    4.1454 C.3       1 <0>         0.2051
     12 C10         3.8940   -1.8856    4.6386 C.3       1 <0>         0.1438
     13 C11         4.6931   -1.2479    3.5115 C.3       1 <0>        -0.1188
     14 C12         5.5185   -2.2771    2.7432 C.3       1 <0>        -0.1306
     15 C13         6.4300   -3.0416    3.7097 C.3       1 <0>        -0.1272
     16 C14         5.5216   -3.7638    4.7261 C.3       1 <0>         0.1207
     17 N1          4.8038   -2.7073    5.4672 N.am      1 <0>        -0.6080
     18 C15         4.9593   -2.5045    6.7905 C.2       1 <0>         0.5060
     19 O3          4.4177   -1.5614    7.3272 O.2       1 <0>        -0.5177
     20 C16         5.8063   -3.4496    7.6033 C.3       1 <0>         0.1368
     21 C17         5.0274   -4.7093    7.8815 C.ar      1 <0>        -0.1212
     22 C18         4.0472   -4.7145    8.8563 C.ar      1 <0>        -0.0897
     23 C19         3.3325   -5.8696    9.1119 C.ar      1 <0>        -0.1042
     24 C20         3.5982   -7.0208    8.3920 C.ar      1 <0>        -0.0265
     25 C21         4.5793   -7.0150    7.4165 C.ar      1 <0>        -0.0999
     26 C22         5.2895   -5.8577    7.1579 C.ar      1 <0>        -0.0919
     27 Cl1         2.7014   -8.4721    8.7129 Cl        1 <0>        -0.0621
     28 O4          6.1625   -2.8270    8.8392 O.3       1 <0>        -0.5247
     29 C23         4.4968   -4.5236    3.9257 C.2       1 <0>         0.5150
     30 O5          4.7902   -5.6281    3.5179 O.2       1 <0>        -0.5316
     31 N2          3.2699   -4.0472    3.6341 N.am      1 <0>        -0.5933
     32 C24         2.4555   -4.9065    2.7627 C.3       1 <0>         0.1191
     33 C25         1.0529   -4.3495    2.5704 C.3       1 <0>        -0.0934
     34 H1          0.9184    1.3475   -0.2394 H         1 <0>         0.0568
     35 H2         -0.6697    1.3336   -1.0430 H         1 <0>         0.1046
     36 H3         -0.5697    1.4827    0.7278 H         1 <0>         0.0570
     37 H4         -0.1279   -2.9547    0.5691 H         1 <0>         0.1379
     38 H5          1.1287    0.9333    1.8171 H         1 <0>         0.1400
     39 H6          2.6962    2.0890    4.5104 H         1 <0>         0.1056
     40 H7          2.7189    1.7874    2.7563 H         1 <0>         0.0568
     41 H8          1.1723    1.7990    3.6374 H         1 <0>         0.0579
     42 H9          2.1370   -3.0107    5.0173 H         1 <0>         0.0757
     43 H10         3.4818   -1.1063    5.2851 H         1 <0>         0.1315
     44 H11         4.0300   -0.7435    2.8104 H         1 <0>         0.0813
     45 H12         5.3723   -0.5020    3.9377 H         1 <0>         0.0721
     46 H13         4.8546   -2.9700    2.2302 H         1 <0>         0.0689
     47 H14         6.1330   -1.7601    2.0029 H         1 <0>         0.0741
     48 H15         7.0200   -3.7729    3.1569 H         1 <0>         0.0893
     49 H16         7.0883   -2.3457    4.2273 H         1 <0>         0.0877
     50 H17         6.0899   -4.4162    5.3865 H         1 <0>         0.1324
     51 H18         6.7105   -3.6968    7.0471 H         1 <0>         0.1310
     52 H19         3.8400   -3.8159    9.4184 H         1 <0>         0.1341
     53 H20         2.5670   -5.8736    9.8737 H         1 <0>         0.1386
     54 H21         4.7874   -7.9134    6.8544 H         1 <0>         0.1399
     55 H22         6.0521   -5.8518    6.3932 H         1 <0>         0.1355
     56 H23         5.4053   -2.5792    9.3873 H         1 <0>         0.3861
     57 H24         2.9425   -4.9923    1.7907 H         1 <0>         0.0732
     58 H25         2.3850   -5.9000    3.2095 H         1 <0>         0.0830
     59 H26         0.4667   -4.5133    3.4757 H         1 <0>         0.0912
     60 H27         0.5684   -4.8535    1.7335 H         1 <0>         0.0996
@<TRIPOS>BOND
     1    1    2 1
     2    1   34 1
     3    1   35 1
     4    1   36 1
     5    2    3 1
     6    3    8 ar
     7    3    4 ar
     8    4    5 ar
     9    4   37 1
    10    5   33 1
    11    5    6 ar
    12    6    7 ar
    13    6   11 1
    14    7    8 ar
    15    7    9 1
    16    8   38 1
    17    9   10 1
    18   10   39 1
    19   10   40 1
    20   10   41 1
    21   11   31 1
    22   11   12 1
    23   11   42 1
    24   12   17 1
    25   12   13 1
    26   12   43 1
    27   13   14 1
    28   13   44 1
    29   13   45 1
    30   14   15 1
    31   14   46 1
    32   14   47 1
    33   15   16 1
    34   15   48 1
    35   15   49 1
    36   16   17 1
    37   16   29 1
    38   16   50 1
    39   17   18 am
    40   18   19 2
    41   18   20 1
    42   20   21 1
    43   20   28 1
    44   20   51 1
    45   21   26 ar
    46   21   22 ar
    47   22   23 ar
    48   22   52 1
    49   23   24 ar
    50   23   53 1
    51   24   25 ar
    52   24   27 1
    53   25   26 ar
    54   25   54 1
    55   26   55 1
    56   28   56 1
    57   29   30 2
    58   29   31 am
    59   31   32 1
    60   32   33 1
    61   32   57 1
    62   32   58 1
    63   33   59 1
    64   33   60 1
@<TRIPOS>MOLECULE
CHEMBL372289__1
   60    64     0     0     0
SMALL
USER_CHARGES

@<TRIPOS>ATOM
      1 C1         -0.3185    3.3755    2.0128 C.3       1 <0>         0.0252
      2 O1         -0.0675    2.0956    1.4291 O.3       1 <0>        -0.3098
      3 C2          0.5900    1.1871    2.1947 C.ar      1 <0>         0.1791
      4 C3          0.8391   -0.0889    1.7070 C.ar      1 <0>        -0.1788
      5 C4          1.5465   -0.9868    2.4723 C.ar      1 <0>         0.0011
      6 C5          2.0422   -0.6312    3.7220 C.ar      1 <0>        -0.1655
      7 C6          1.6908    0.5949    4.2521 C.ar      1 <0>         0.1914
      8 C7          0.9872    1.5144    3.4794 C.ar      1 <0>        -0.3053
      9 O2          1.9543    0.9203    5.5462 O.3       1 <0>        -0.3083
     10 C8          1.5450    2.2171    5.9853 C.3       1 <0>         0.0237
     11 C9          2.9684   -1.5982    4.4055 C.3       1 <0>         0.2036
     12 C10         3.8325   -0.9216    5.4563 C.3       1 <0>         0.1438
     13 C11         4.5622    0.3075    4.9340 C.3       1 <0>        -0.1175
     14 C12         5.6505   -0.0590    3.9280 C.3       1 <0>        -0.1304
     15 C13         6.6254   -1.0613    4.5558 C.3       1 <0>        -0.1228
     16 C14         5.8167   -2.3226    4.9230 C.3       1 <0>         0.1228
     17 N1          4.8293   -1.9035    5.9379 N.am      1 <0>        -0.6078
     18 C15         4.8300   -2.3745    7.2006 C.2       1 <0>         0.5061
     19 O3          4.0450   -1.9331    8.0129 O.2       1 <0>        -0.5182
     20 C16         5.8063   -3.4496    7.6033 C.3       1 <0>         0.1362
     21 C17         7.1630   -2.8354    7.8336 C.ar      1 <0>        -0.1191
     22 C18         7.4001   -2.0915    8.9744 C.ar      1 <0>        -0.0884
     23 C19         8.6442   -1.5279    9.1861 C.ar      1 <0>        -0.1035
     24 C20         9.6525   -1.7086    8.2562 C.ar      1 <0>        -0.0266
     25 C21         9.4147   -2.4532    7.1146 C.ar      1 <0>        -0.1034
     26 C22         8.1718   -3.0210    6.9067 C.ar      1 <0>        -0.0938
     27 Cl1        11.2153   -1.0006    8.5212 Cl        1 <0>        -0.0621
     28 O4          5.3562   -4.0753    8.8065 O.3       1 <0>        -0.5243
     29 C23         5.0492   -2.7179    3.6890 C.2       1 <0>         0.5113
     30 O5          5.6074   -3.4089    2.8623 O.2       1 <0>        -0.5327
     31 N2          3.7757   -2.3475    3.4477 N.am      1 <0>        -0.5941
     32 C24         3.2402   -2.7605    2.1424 C.3       1 <0>         0.1183
     33 C25         1.7703   -2.3976    1.9938 C.3       1 <0>        -0.0934
     34 H1          0.6284    3.8461    2.2775 H         1 <0>         0.0567
     35 H2         -0.8488    4.0037    1.2971 H         1 <0>         0.1047
     36 H3         -0.9264    3.2532    2.9092 H         1 <0>         0.0570
     37 H4          0.4798   -0.3774    0.7294 H         1 <0>         0.1380
     38 H5          0.7574    2.4887    3.8855 H         1 <0>         0.1398
     39 H6          1.8144    2.3477    7.0334 H         1 <0>         0.1053
     40 H7          2.0432    2.9781    5.3847 H         1 <0>         0.0566
     41 H8          0.4652    2.3148    5.8728 H         1 <0>         0.0580
     42 H9          2.3372   -2.3304    4.9313 H         1 <0>         0.0779
     43 H10         3.2102   -0.6453    6.3116 H         1 <0>         0.1317
     44 H11         3.8640    0.9916    4.4543 H         1 <0>         0.0811
     45 H12         5.0266    0.8282    5.7781 H         1 <0>         0.0707
     46 H13         5.1964   -0.4885    3.0373 H         1 <0>         0.0689
     47 H14         6.1956    0.8452    3.6479 H         1 <0>         0.0733
     48 H15         7.4027   -1.3176    3.8357 H         1 <0>         0.0881
     49 H16         7.0729   -0.6322    5.4509 H         1 <0>         0.0862
     50 H17         6.4581   -3.1263    5.2801 H         1 <0>         0.1331
     51 H18         5.8744   -4.1941    6.8101 H         1 <0>         0.1306
     52 H19         6.6128   -1.9502    9.7001 H         1 <0>         0.1342
     53 H20         8.8292   -0.9465   10.0772 H         1 <0>         0.1385
     54 H21        10.2013   -2.5943    6.3882 H         1 <0>         0.1405
     55 H22         7.9874   -3.6063    6.0180 H         1 <0>         0.1373
     56 H23         5.2721   -3.4708    9.5566 H         1 <0>         0.3861
     57 H24         3.8109   -2.2716    1.3520 H         1 <0>         0.0734
     58 H25         3.3515   -3.8415    2.0391 H         1 <0>         0.0837
     59 H26         1.1627   -3.0801    2.5897 H         1 <0>         0.0919
     60 H27         1.4758   -2.4767    0.9468 H         1 <0>         0.0997
@<TRIPOS>BOND
     1    1    2 1
     2    1   34 1
     3    1   35 1
     4    1   36 1
     5    2    3 1
     6    3    8 ar
     7    3    4 ar
     8    4    5 ar
     9    4   37 1
    10    5   33 1
    11    5    6 ar
    12    6    7 ar
    13    6   11 1
    14    7    8 ar
    15    7    9 1
    16    8   38 1
    17    9   10 1
    18   10   39 1
    19   10   40 1
    20   10   41 1
    21   11   31 1
    22   11   12 1
    23   11   42 1
    24   12   17 1
    25   12   13 1
    26   12   43 1
    27   13   14 1
    28   13   44 1
    29   13   45 1
    30   14   15 1
    31   14   46 1
    32   14   47 1
    33   15   16 1
    34   15   48 1
    35   15   49 1
    36   16   17 1
    37   16   29 1
    38   16   50 1
    39   17   18 am
    40   18   19 2
    41   18   20 1
    42   20   21 1
    43   20   28 1
    44   20   51 1
    45   21   26 ar
    46   21   22 ar
    47   22   23 ar
    48   22   52 1
    49   23   24 ar
    50   23   53 1
    51   24   25 ar
    52   24   27 1
    53   25   26 ar
    54   25   54 1
    55   26   55 1
    56   28   56 1
    57   29   30 2
    58   29   31 am
    59   31   32 1
    60   32   33 1
    61   32   57 1
    62   32   58 1
    63   33   59 1
    64   33   60 1
@<TRIPOS>MOLECULE
CHEMBL372289__2
   60    64     0     0     0
SMALL
USER_CHARGES

@<TRIPOS>ATOM
      1 C1         -0.4843    0.6811    0.2536 C.3       1 <0>         0.0257
      2 O1         -0.3677   -0.7385    0.3674 O.3       1 <0>        -0.3118
      3 C2          0.3726   -1.2158    1.4023 C.ar      1 <0>         0.1742
      4 C3          0.5328   -2.5812    1.5699 C.ar      1 <0>        -0.1885
      5 C4          1.2834   -3.0813    2.6253 C.ar      1 <0>         0.0082
      6 C5          1.8676   -2.2081    3.5177 C.ar      1 <0>        -0.1668
      7 C6          1.7158   -0.8346    3.3475 C.ar      1 <0>         0.1811
      8 C7          0.9742   -0.3372    2.2898 C.ar      1 <0>        -0.2927
      9 O2          2.3036    0.0232    4.2223 O.3       1 <0>        -0.3031
     10 C8          2.1089    1.4200    3.9913 C.3       1 <0>         0.0203
     11 C9          2.6631   -2.6961    4.6985 C.3       1 <0>         0.1978
     12 C10         3.8819   -1.8213    4.9331 C.3       1 <0>         0.1180
     13 C11         4.0872   -1.6241    6.4407 C.3       1 <0>        -0.1252
     14 C12         4.3477   -2.9835    7.0936 C.3       1 <0>        -0.1300
     15 C13         5.5986   -3.6193    6.4838 C.3       1 <0>        -0.1256
     16 C14         5.3898   -3.8061    4.9763 C.3       1 <0>         0.1185
     17 N1          5.0830   -2.4820    4.3924 N.am      1 <0>        -0.5995
     18 C15         5.8468   -1.9205    3.4343 C.2       1 <0>         0.5055
     19 O3          5.5016   -0.8798    2.9160 O.2       1 <0>        -0.5173
     20 C16         7.1297   -2.5858    3.0072 C.3       1 <0>         0.1348
     21 C17         8.1928   -2.3411    4.0469 C.ar      1 <0>        -0.1163
     22 C18         8.8276   -1.1147    4.1108 C.ar      1 <0>        -0.0887
     23 C19         9.8026   -0.8897    5.0641 C.ar      1 <0>        -0.1032
     24 C20        10.1434   -1.8922    5.9547 C.ar      1 <0>        -0.0270
     25 C21         9.5078   -3.1193    5.8903 C.ar      1 <0>        -0.1037
     26 C22         8.5289   -3.3413    4.9401 C.ar      1 <0>        -0.0942
     27 Cl1        11.3684   -1.6105    7.1520 Cl        1 <0>        -0.0620
     28 O4          7.5540   -2.0429    1.7553 O.3       1 <0>        -0.5246
     29 C23         4.1666   -4.6636    4.7551 C.2       1 <0>         0.5202
     30 O5          4.2769   -5.8713    4.7535 O.2       1 <0>        -0.5319
     31 N2          2.9605   -4.1111    4.5609 N.am      1 <0>        -0.5924
     32 C24         1.8435   -4.9876    4.1478 C.3       1 <0>         0.1032
     33 C25         1.4290   -4.5760    2.7362 C.3       1 <0>        -0.0982
     34 H1          0.5065    1.1185    0.1311 H         1 <0>         0.0565
     35 H2         -1.0995    0.9269   -0.6120 H         1 <0>         0.1038
     36 H3         -0.9490    1.0809    1.1549 H         1 <0>         0.0562
     37 H4          0.0689   -3.2636    0.8731 H         1 <0>         0.1342
     38 H5          0.8616    0.7290    2.1591 H         1 <0>         0.1384
     39 H6          2.6297    1.9913    4.7597 H         1 <0>         0.1038
     40 H7          2.5047    1.6847    3.0108 H         1 <0>         0.0587
     41 H8          1.0439    1.6492    4.0273 H         1 <0>         0.0575
     42 H9          2.0273   -2.5868    5.5771 H         1 <0>         0.0858
     43 H10         3.7415   -0.8578    4.4431 H         1 <0>         0.1574
     44 H11         4.9420   -0.9691    6.6094 H         1 <0>         0.0759
     45 H12         3.1930   -1.1769    6.8748 H         1 <0>         0.0836
     46 H13         4.4953   -2.8486    8.1651 H         1 <0>         0.0776
     47 H14         3.4910   -3.6362    6.9260 H         1 <0>         0.0674
     48 H15         6.4570   -2.9694    6.6543 H         1 <0>         0.0861
     49 H16         5.7777   -4.5886    6.9491 H         1 <0>         0.0885
     50 H17         6.2745   -4.2418    4.5118 H         1 <0>         0.1279
     51 H18         6.9652   -3.6580    2.9012 H         1 <0>         0.1291
     52 H19         8.5617   -0.3323    3.4153 H         1 <0>         0.1333
     53 H20        10.2987    0.0684    5.1137 H         1 <0>         0.1384
     54 H21         9.7736   -3.9024    6.5850 H         1 <0>         0.1404
     55 H22         8.0293   -4.2976    4.8928 H         1 <0>         0.1362
     56 H23         7.7195   -1.0903    1.7755 H         1 <0>         0.3851
     57 H24         2.1700   -6.0276    4.1486 H         1 <0>         0.1088
     58 H25         1.0034   -4.8626    4.8309 H         1 <0>         0.0810
     59 H26         0.4768   -5.0468    2.4919 H         1 <0>         0.0965
     60 H27         2.1858   -4.9146    2.0286 H         1 <0>         0.0872
@<TRIPOS>BOND
     1    1    2 1
     2    1   34 1
     3    1   35 1
     4    1   36 1
     5    2    3 1
     6    3    8 ar
     7    3    4 ar
     8    4    5 ar
     9    4   37 1
    10    5   33 1
    11    5    6 ar
    12    6    7 ar
    13    6   11 1
    14    7    8 ar
    15    7    9 1
    16    8   38 1
    17    9   10 1
    18   10   39 1
    19   10   40 1
    20   10   41 1
    21   11   31 1
    22   11   12 1
    23   11   42 1
    24   12   17 1
    25   12   13 1
    26   12   43 1
    27   13   14 1
    28   13   44 1
    29   13   45 1
    30   14   15 1
    31   14   46 1
    32   14   47 1
    33   15   16 1
    34   15   48 1
    35   15   49 1
    36   16   17 1
    37   16   29 1
    38   16   50 1
    39   17   18 am
    40   18   19 2
    41   18   20 1
    42   20   21 1
    43   20   28 1
    44   20   51 1
    45   21   26 ar
    46   21   22 ar
    47   22   23 ar
    48   22   52 1
    49   23   24 ar
    50   23   53 1
    51   24   25 ar
    52   24   27 1
    53   25   26 ar
    54   25   54 1
    55   26   55 1
    56   28   56 1
    57   29   30 2
    58   29   31 am
    59   31   32 1
    60   32   33 1
    61   32   57 1
    62   32   58 1
    63   33   59 1
    64   33   60 1
@<TRIPOS>MOLECULE
CHEMBL372289__3
   60    64     0     0     0
SMALL
USER_CHARGES

@<TRIPOS>ATOM
      1 C1          2.5562    3.7238   -0.9098 C.3       1 <0>         0.0258
      2 O1          2.1969    2.3676   -1.1813 O.3       1 <0>        -0.3119
      3 C2          2.2916    1.4863   -0.1512 C.ar      1 <0>         0.1741
      4 C3          1.9648    0.1543   -0.3446 C.ar      1 <0>        -0.1889
      5 C4          2.0537   -0.7551    0.7006 C.ar      1 <0>         0.0095
      6 C5          2.4645   -0.3237    1.9438 C.ar      1 <0>        -0.1662
      7 C6          2.8019    1.0128    2.1398 C.ar      1 <0>         0.1810
      8 C7          2.7210    1.9167    1.0945 C.ar      1 <0>        -0.2932
      9 O2          3.2183    1.4316    3.3637 O.3       1 <0>        -0.3029
     10 C8          3.5493    2.8152    3.4981 C.3       1 <0>         0.0203
     11 C9          2.5463   -1.2591    3.1199 C.3       1 <0>         0.1978
     12 C10         3.7703   -0.9619    3.9681 C.3       1 <0>         0.1170
     13 C11         3.4097   -1.1013    5.4529 C.3       1 <0>        -0.1262
     14 C12         2.9798   -2.5434    5.7315 C.3       1 <0>        -0.1307
     15 C13         4.1238   -3.4998    5.3888 C.3       1 <0>        -0.1277
     16 C14         4.4844   -3.3497    3.9061 C.3       1 <0>         0.1144
     17 N1          4.8363   -1.9332    3.6651 N.am      1 <0>        -0.5998
     18 C15         6.0448   -1.5580    3.2012 C.2       1 <0>         0.5057
     19 O3          6.2592   -0.3932    2.9399 O.2       1 <0>        -0.5185
     20 C16         7.1297   -2.5858    3.0072 C.3       1 <0>         0.1364
     21 C17         6.9100   -3.3081    1.7030 C.ar      1 <0>        -0.1224
     22 C18         7.1769   -2.6698    0.5062 C.ar      1 <0>        -0.0887
     23 C19         6.9756   -3.3318   -0.6903 C.ar      1 <0>        -0.1041
     24 C20         6.5068   -4.6334   -0.6901 C.ar      1 <0>        -0.0258
     25 C21         6.2399   -5.2717    0.5080 C.ar      1 <0>        -0.0984
     26 C22         6.4470   -4.6107    1.7040 C.ar      1 <0>        -0.0913
     27 Cl1         6.2532   -5.4653   -2.1925 Cl        1 <0>        -0.0622
     28 O4          8.4024   -1.9363    2.9835 O.3       1 <0>        -0.5252
     29 C23         3.2562   -3.6316    3.0738 C.2       1 <0>         0.5237
     30 O5          2.9992   -4.7738    2.7573 O.2       1 <0>        -0.5299
     31 N2          2.4453   -2.6395    2.6793 N.am      1 <0>        -0.5923
     32 C24         1.3801   -2.9483    1.7013 C.3       1 <0>         0.1038
     33 C25         1.6989   -2.1901    0.4139 C.3       1 <0>        -0.0976
     34 H1          3.5951    3.7660   -0.5829 H         1 <0>         0.0563
     35 H2          2.4355    4.3197   -1.8145 H         1 <0>         0.1037
     36 H3          1.9119    4.1202   -0.1251 H         1 <0>         0.0563
     37 H4          1.6372   -0.1800   -1.3179 H         1 <0>         0.1335
     38 H5          2.9870    2.9519    1.2496 H         1 <0>         0.1383
     39 H6          3.8656    3.0154    4.5218 H         1 <0>         0.1043
     40 H7          4.3595    3.0632    2.8124 H         1 <0>         0.0586
     41 H8          2.6753    3.4224    3.2625 H         1 <0>         0.0573
     42 H9          1.6770   -1.0589    3.7464 H         1 <0>         0.0852
     43 H10         4.1242    0.0478    3.7598 H         1 <0>         0.1576
     44 H11         4.2786   -0.8557    6.0634 H         1 <0>         0.0773
     45 H12         2.5905   -0.4239    5.6940 H         1 <0>         0.0839
     46 H13         2.7235   -2.6479    6.7857 H         1 <0>         0.0781
     47 H14         2.1094   -2.7863    5.1220 H         1 <0>         0.0673
     48 H15         4.9936   -3.2606    6.0007 H         1 <0>         0.0859
     49 H16         3.8116   -4.5255    5.5852 H         1 <0>         0.0891
     50 H17         5.3106   -4.0080    3.6378 H         1 <0>         0.1294
     51 H18         7.1026   -3.3021    3.8283 H         1 <0>         0.1300
     52 H19         7.5425   -1.6536    0.5061 H         1 <0>         0.1324
     53 H20         7.1838   -2.8329   -1.6253 H         1 <0>         0.1375
     54 H21         5.8736   -6.2877    0.5089 H         1 <0>         0.1402
     55 H22         6.2431   -5.1104    2.6395 H         1 <0>         0.1359
     56 H23         8.4978   -1.2837    2.2763 H         1 <0>         0.3858
     57 H24         1.3594   -4.0200    1.5035 H         1 <0>         0.1084
     58 H25         0.4150   -2.6249    2.0914 H         1 <0>         0.0805
     59 H26         0.8290   -2.2188   -0.2423 H         1 <0>         0.0957
     60 H27         2.5386   -2.6726   -0.0863 H         1 <0>         0.0860
@<TRIPOS>BOND
     1    1    2 1
     2    1   34 1
     3    1   35 1
     4    1   36 1
     5    2    3 1
     6    3    8 ar
     7    3    4 ar
     8    4    5 ar
     9    4   37 1
    10    5   33 1
    11    5    6 ar
    12    6    7 ar
    13    6   11 1
    14    7    8 ar
    15    7    9 1
    16    8   38 1
    17    9   10 1
    18   10   39 1
    19   10   40 1
    20   10   41 1
    21   11   31 1
    22   11   12 1
    23   11   42 1
    24   12   17 1
    25   12   13 1
    26   12   43 1
    27   13   14 1
    28   13   44 1
    29   13   45 1
    30   14   15 1
    31   14   46 1
    32   14   47 1
    33   15   16 1
    34   15   48 1
    35   15   49 1
    36   16   17 1
    37   16   29 1
    38   16   50 1
    39   17   18 am
    40   18   19 2
    41   18   20 1
    42   20   21 1
    43   20   28 1
    44   20   51 1
    45   21   26 ar
    46   21   22 ar
    47   22   23 ar
    48   22   52 1
    49   23   24 ar
    50   23   53 1
    51   24   25 ar
    52   24   27 1
    53   25   26 ar
    54   25   54 1
    55   26   55 1
    56   28   56 1
    57   29   30 2
    58   29   31 am
    59   31   32 1
    60   32   33 1
    61   32   57 1
    62   32   58 1
    63   33   59 1
    64   33   60 1
@<TRIPOS>MOLECULE
CHEMBL372289__4
   60    64     0     0     0
SMALL
USER_CHARGES

@<TRIPOS>ATOM
      1 C1         -0.3175    2.0918    0.4141 C.3       1 <0>         0.0257
      2 O1         -0.4111    0.6733    0.2684 O.3       1 <0>        -0.3117
      3 C2          0.2491   -0.0857    1.1822 C.ar      1 <0>         0.1743
      4 C3          0.2066   -1.4675    1.0984 C.ar      1 <0>        -0.1886
      5 C4          0.8790   -2.2539    2.0241 C.ar      1 <0>         0.0104
      6 C5          1.6011   -1.6507    3.0314 C.ar      1 <0>        -0.1667
      7 C6          1.6402   -0.2620    3.1234 C.ar      1 <0>         0.1794
      8 C7          0.9719    0.5207    2.1978 C.ar      1 <0>        -0.2937
      9 O2          2.3436    0.3289    4.1249 O.3       1 <0>        -0.3030
     10 C8          2.3433    1.7574    4.1626 C.3       1 <0>         0.0206
     11 C9          2.3746   -2.4536    4.0424 C.3       1 <0>         0.1977
     12 C10         2.2575   -1.8422    5.4276 C.3       1 <0>         0.1185
     13 C11         3.6120   -1.9324    6.1425 C.3       1 <0>        -0.1261
     14 C12         3.9965   -3.4046    6.3060 C.3       1 <0>        -0.1306
     15 C13         2.9311   -4.1291    7.1312 C.3       1 <0>        -0.1271
     16 C14         1.5789   -4.0282    6.4157 C.3       1 <0>         0.1161
     17 N1          1.2715   -2.5937    6.2242 N.am      1 <0>        -0.5998
     18 C15         0.1692   -2.0158    6.7415 C.2       1 <0>         0.5056
     19 O3          0.0096   -0.8177    6.6427 O.2       1 <0>        -0.5181
     20 C16        -0.8649   -2.8585    7.4426 C.3       1 <0>         0.1356
     21 C17        -1.6794   -3.6082    6.4201 C.ar      1 <0>        -0.1206
     22 C18        -2.6359   -2.9430    5.6761 C.ar      1 <0>        -0.0892
     23 C19        -3.3833   -3.6301    4.7381 C.ar      1 <0>        -0.1038
     24 C20        -3.1738   -4.9838    4.5438 C.ar      1 <0>        -0.0262
     25 C21        -2.2163   -5.6490    5.2887 C.ar      1 <0>        -0.0977
     26 C22        -1.4657   -4.9596    6.2225 C.ar      1 <0>        -0.0899
     27 Cl1        -4.1124   -5.8475    3.3663 Cl        1 <0>        -0.0626
     28 O4         -1.7250   -2.0152    8.2114 O.3       1 <0>        -0.5248
     29 C23         1.7105   -4.6239    5.0345 C.2       1 <0>         0.5239
     30 O5          1.5524   -5.8166    4.8813 O.2       1 <0>        -0.5297
     31 N2          1.9995   -3.8551    3.9746 N.am      1 <0>        -0.5918
     32 C24         1.9080   -4.4539    2.6256 C.3       1 <0>         0.1040
     33 C25         0.7752   -3.7494    1.8811 C.3       1 <0>        -0.0973
     34 H1          0.7272    2.3957    0.3474 H         1 <0>         0.0564
     35 H2         -0.8883    2.5768   -0.3778 H         1 <0>         0.1038
     36 H3         -0.7199    2.3848    1.3838 H         1 <0>         0.0562
     37 H4         -0.3556   -1.9379    0.3052 H         1 <0>         0.1335
     38 H5          1.0100    1.5977    2.2688 H         1 <0>         0.1383
     39 H6          2.9403    2.0986    5.0084 H         1 <0>         0.1046
     40 H7          2.7691    2.1454    3.2373 H         1 <0>         0.0573
     41 H8          1.3203    2.1178    4.2710 H         1 <0>         0.0584
     42 H9          3.4259   -2.3900    3.7618 H         1 <0>         0.0854
     43 H10         1.9444   -0.8015    5.3437 H         1 <0>         0.1564
     44 H11         4.3711   -1.4212    5.5505 H         1 <0>         0.0834
     45 H12         3.5377   -1.4641    7.1240 H         1 <0>         0.0774
     46 H13         4.0728   -3.8705    5.3235 H         1 <0>         0.0672
     47 H14         4.9580   -3.4737    6.8146 H         1 <0>         0.0780
     48 H15         3.2071   -5.1778    7.2411 H         1 <0>         0.0892
     49 H16         2.8571   -3.6670    8.1156 H         1 <0>         0.0858
     50 H17         0.7960   -4.5211    6.9920 H         1 <0>         0.1278
     51 H18        -0.3677   -3.5690    8.1030 H         1 <0>         0.1301
     52 H19        -2.7996   -1.8864    5.8280 H         1 <0>         0.1311
     53 H20        -4.1308   -3.1104    4.1571 H         1 <0>         0.1370
     54 H21        -2.0526   -6.7057    5.1378 H         1 <0>         0.1395
     55 H22        -0.7149   -5.4778    6.8006 H         1 <0>         0.1349
     56 H23        -2.2012   -1.3566    7.6873 H         1 <0>         0.3853
     57 H24         2.8474   -4.3084    2.0923 H         1 <0>         0.0801
     58 H25         1.6900   -5.5187    2.7080 H         1 <0>         0.1084
     59 H26        -0.1803   -4.0818    2.2869 H         1 <0>         0.0861
     60 H27         0.8244   -4.0118    0.8243 H         1 <0>         0.0955
@<TRIPOS>BOND
     1    1    2 1
     2    1   34 1
     3    1   35 1
     4    1   36 1
     5    2    3 1
     6    3    8 ar
     7    3    4 ar
     8    4    5 ar
     9    4   37 1
    10    5   33 1
    11    5    6 ar
    12    6    7 ar
    13    6   11 1
    14    7    8 ar
    15    7    9 1
    16    8   38 1
    17    9   10 1
    18   10   39 1
    19   10   40 1
    20   10   41 1
    21   11   31 1
    22   11   12 1
    23   11   42 1
    24   12   17 1
    25   12   13 1
    26   12   43 1
    27   13   14 1
    28   13   44 1
    29   13   45 1
    30   14   15 1
    31   14   46 1
    32   14   47 1
    33   15   16 1
    34   15   48 1
    35   15   49 1
    36   16   17 1
    37   16   29 1
    38   16   50 1
    39   17   18 am
    40   18   19 2
    41   18   20 1
    42   20   21 1
    43   20   28 1
    44   20   51 1
    45   21   26 ar
    46   21   22 ar
    47   22   23 ar
    48   22   52 1
    49   23   24 ar
    50   23   53 1
    51   24   25 ar
    52   24   27 1
    53   25   26 ar
    54   25   54 1
    55   26   55 1
    56   28   56 1
    57   29   30 2
    58   29   31 am
    59   31   32 1
    60   32   33 1
    61   32   57 1
    62   32   58 1
    63   33   59 1
    64   33   60 1
@<TRIPOS>MOLECULE
CHEMBL372289__5
   60    64     0     0     0
SMALL
USER_CHARGES

@<TRIPOS>ATOM
      1 C1         -0.5020    0.6821   -0.4159 C.3       1 <0>         0.0256
      2 O1          0.0636   -0.6131   -0.2046 O.3       1 <0>        -0.3116
      3 C2          0.6931   -0.8255    0.9809 C.ar      1 <0>         0.1746
      4 C3          1.2693   -2.0556    1.2509 C.ar      1 <0>        -0.1884
      5 C4          1.9177   -2.2842    2.4570 C.ar      1 <0>         0.0085
      6 C5          1.9935   -1.2728    3.3905 C.ar      1 <0>        -0.1679
      7 C6          1.4091   -0.0371    3.1257 C.ar      1 <0>         0.1800
      8 C7          0.7657    0.1902    1.9214 C.ar      1 <0>        -0.2931
      9 O2          1.4756    0.9539    4.0533 O.3       1 <0>        -0.3032
     10 C8          0.8559    2.1975    3.7196 C.3       1 <0>         0.0205
     11 C9          2.7113   -1.4553    4.7006 C.3       1 <0>         0.1976
     12 C10         1.9552   -0.7837    5.8335 C.3       1 <0>         0.1183
     13 C11         2.9527   -0.1130    6.7870 C.3       1 <0>        -0.1251
     14 C12         3.8634   -1.1823    7.3944 C.3       1 <0>        -0.1304
     15 C13         3.0221   -2.2016    8.1652 C.3       1 <0>        -0.1234
     16 C14         2.0222   -2.8620    7.2088 C.3       1 <0>         0.1164
     17 N1          1.2017   -1.7926    6.5990 N.am      1 <0>        -0.5996
     18 C15        -0.1384   -1.7443    6.7343 C.2       1 <0>         0.5064
     19 O3         -0.7597   -0.8041    6.2860 O.2       1 <0>        -0.5188
     20 C16        -0.8649   -2.8585    7.4426 C.3       1 <0>         0.1352
     21 C17        -0.7368   -2.6741    8.9328 C.ar      1 <0>        -0.1185
     22 C18        -1.4613   -1.6850    9.5714 C.ar      1 <0>        -0.0883
     23 C19        -1.3442   -1.5154   10.9381 C.ar      1 <0>        -0.1031
     24 C20        -0.5017   -2.3358   11.6671 C.ar      1 <0>        -0.0267
     25 C21         0.2231   -3.3255   11.0274 C.ar      1 <0>        -0.1030
     26 C22         0.1009   -3.4978    9.6614 C.ar      1 <0>        -0.0950
     27 Cl1        -0.3537   -2.1230   13.3836 Cl        1 <0>        -0.0617
     28 O4         -2.2460   -2.8348    7.0767 O.3       1 <0>        -0.5245
     29 C23         2.7830   -3.5125    6.0783 C.2       1 <0>         0.5196
     30 O5          3.1991   -4.6438    6.2121 O.2       1 <0>        -0.5319
     31 N2          3.0057   -2.8591    4.9288 N.am      1 <0>        -0.5927
     32 C24         3.5670   -3.6143    3.7881 C.3       1 <0>         0.1030
     33 C25         2.5066   -3.6507    2.6890 C.3       1 <0>        -0.0982
     34 H1          0.2844    1.4350   -0.3630 H         1 <0>         0.0563
     35 H2         -0.9729    0.7170   -1.3983 H         1 <0>         0.1039
     36 H3         -1.2489    0.8821    0.3523 H         1 <0>         0.0566
     37 H4          1.2133   -2.8451    0.5160 H         1 <0>         0.1344
     38 H5          0.3192    1.1522    1.7173 H         1 <0>         0.1385
     39 H6          0.9818    2.8990    4.5443 H         1 <0>         0.1042
     40 H7          1.3200    2.6053    2.8216 H         1 <0>         0.0575
     41 H8         -0.2069    2.0368    3.5384 H         1 <0>         0.0587
     42 H9          3.6669   -0.9381    4.6142 H         1 <0>         0.0863
     43 H10         1.2669   -0.0430    5.4264 H         1 <0>         0.1568
     44 H11         3.5554    0.6083    6.2352 H         1 <0>         0.0834
     45 H12         2.4095    0.3974    7.5823 H         1 <0>         0.0762
     46 H13         4.4077   -1.6898    6.5979 H         1 <0>         0.0674
     47 H14         4.5734   -0.7105    8.0737 H         1 <0>         0.0776
     48 H15         3.6746   -2.9633    8.5921 H         1 <0>         0.0885
     49 H16         2.4809   -1.6960    8.9650 H         1 <0>         0.0847
     50 H17         1.3958   -3.5811    7.7366 H         1 <0>         0.1297
     51 H18        -0.4295   -3.8159    7.1562 H         1 <0>         0.1285
     52 H19        -2.1187   -1.0445    9.0023 H         1 <0>         0.1339
     53 H20        -1.9101   -0.7425   11.4369 H         1 <0>         0.1386
     54 H21         0.8812   -3.9660   11.5958 H         1 <0>         0.1407
     55 H22         0.6631   -4.2734    9.1627 H         1 <0>         0.1374
     56 H23        -2.6986   -2.0106    7.3022 H         1 <0>         0.3855
     57 H24         4.4637   -3.1156    3.4201 H         1 <0>         0.0810
     58 H25         3.8101   -4.6298    4.1009 H         1 <0>         0.1089
     59 H26         1.7122   -4.3374    2.9813 H         1 <0>         0.0874
     60 H27         2.9620   -4.0053    1.7644 H         1 <0>         0.0967
@<TRIPOS>BOND
     1    1    2 1
     2    1   34 1
     3    1   35 1
     4    1   36 1
     5    2    3 1
     6    3    8 ar
     7    3    4 ar
     8    4    5 ar
     9    4   37 1
    10    5   33 1
    11    5    6 ar
    12    6    7 ar
    13    6   11 1
    14    7    8 ar
    15    7    9 1
    16    8   38 1
    17    9   10 1
    18   10   39 1
    19   10   40 1
    20   10   41 1
    21   11   31 1
    22   11   12 1
    23   11   42 1
    24   12   17 1
    25   12   13 1
    26   12   43 1
    27   13   14 1
    28   13   44 1
    29   13   45 1
    30   14   15 1
    31   14   46 1
    32   14   47 1
    33   15   16 1
    34   15   48 1
    35   15   49 1
    36   16   17 1
    37   16   29 1
    38   16   50 1
    39   17   18 am
    40   18   19 2
    41   18   20 1
    42   20   21 1
    43   20   28 1
    44   20   51 1
    45   21   26 ar
    46   21   22 ar
    47   22   23 ar
    48   22   52 1
    49   23   24 ar
    50   23   53 1
    51   24   25 ar
    52   24   27 1
    53   25   26 ar
    54   25   54 1
    55   26   55 1
    56   28   56 1
    57   29   30 2
    58   29   31 am
    59   31   32 1
    60   32   33 1
    61   32   57 1
    62   32   58 1
    63   33   59 1
    64   33   60 1
@<TRIPOS>MOLECULE
CHEMBL372289__6
   60    64     0     0     0
SMALL
USER_CHARGES

@<TRIPOS>ATOM
      1 C1         -0.5058    1.4651    0.2887 C.3       1 <0>         0.0252
      2 O1         -0.6252    0.0425    0.3529 O.3       1 <0>        -0.3097
      3 C2          0.0508   -0.5885    1.3469 C.ar      1 <0>         0.1790
      4 C3          0.0076   -1.9718    1.4554 C.ar      1 <0>        -0.1792
      5 C4          0.6697   -2.5993    2.4867 C.ar      1 <0>         0.0010
      6 C5          1.3655   -1.8704    3.4447 C.ar      1 <0>        -0.1631
      7 C6          1.4821   -0.5029    3.2811 C.ar      1 <0>         0.1906
      8 C7          0.8136    0.1393    2.2436 C.ar      1 <0>        -0.3054
      9 O2          2.2856    0.2520    4.0770 O.3       1 <0>        -0.3085
     10 C8          2.3255    1.6559    3.8135 C.3       1 <0>         0.0237
     11 C9          1.9338   -2.6167    4.6170 C.3       1 <0>         0.2027
     12 C10         2.1949   -1.7103    5.8093 C.3       1 <0>         0.1441
     13 C11         0.9734   -0.9045    6.2206 C.3       1 <0>        -0.1162
     14 C12        -0.1078   -1.7709    6.8632 C.3       1 <0>        -0.1296
     15 C13         0.4790   -2.5689    8.0319 C.3       1 <0>        -0.1253
     16 C14         1.5880   -3.4735    7.4541 C.3       1 <0>         0.1242
     17 N1          2.6296   -2.5595    6.9401 N.am      1 <0>        -0.6080
     18 C15         3.8718   -2.4974    7.4565 C.2       1 <0>         0.5056
     19 O3          4.7122   -1.7976    6.9322 O.2       1 <0>        -0.5179
     20 C16         4.2176   -3.2975    8.6859 C.3       1 <0>         0.1359
     21 C17         3.6120   -2.6406    9.8995 C.ar      1 <0>        -0.1173
     22 C18         4.2030   -1.5154   10.4433 C.ar      1 <0>        -0.0887
     23 C19         3.6480   -0.9125   11.5563 C.ar      1 <0>        -0.1038
     24 C20         2.5009   -1.4353   12.1263 C.ar      1 <0>        -0.0268
     25 C21         1.9099   -2.5615   11.5816 C.ar      1 <0>        -0.1043
     26 C22         2.4626   -3.1602   10.4651 C.ar      1 <0>        -0.0927
     27 Cl1         1.8036   -0.6790   13.5246 Cl        1 <0>        -0.0623
     28 O4          5.6378   -3.3539    8.8336 O.3       1 <0>        -0.5244
     29 C23         0.9882   -4.1857    6.2689 C.2       1 <0>         0.5123
     30 O5          0.3552   -5.2021    6.4728 O.2       1 <0>        -0.5336
     31 N2          1.1103   -3.7616    4.9955 N.am      1 <0>        -0.5936
     32 C24         0.3560   -4.5351    3.9991 C.3       1 <0>         0.1179
     33 C25         0.6844   -4.1028    2.5783 C.3       1 <0>        -0.0935
     34 H1          0.5407    1.7360    0.1490 H         1 <0>         0.0571
     35 H2         -1.0935    1.8416   -0.5485 H         1 <0>         0.1047
     36 H3         -0.8737    1.9028    1.2168 H         1 <0>         0.0568
     37 H4         -0.5452   -2.5563    0.7346 H         1 <0>         0.1378
     38 H5          0.8935    1.2115    2.1398 H         1 <0>         0.1399
     39 H6          3.0026    2.1387    4.5181 H         1 <0>         0.1050
     40 H7          2.6788    1.8247    2.7962 H         1 <0>         0.0580
     41 H8          1.3255    2.0751    3.9251 H         1 <0>         0.0569
     42 H9          2.9097   -3.0197    4.3018 H         1 <0>         0.0783
     43 H10         3.0232   -1.0366    5.5784 H         1 <0>         0.1320
     44 H11         1.2751   -0.1317    6.9341 H         1 <0>         0.0709
     45 H12         0.5393   -0.4106    5.3487 H         1 <0>         0.0803
     46 H13        -0.9071   -1.1264    7.2396 H         1 <0>         0.0733
     47 H14        -0.5253   -2.4504    6.1226 H         1 <0>         0.0685
     48 H15         0.9037   -1.8898    8.7706 H         1 <0>         0.0878
     49 H16        -0.2961   -3.1832    8.4907 H         1 <0>         0.0883
     50 H17         1.9771   -4.1667    8.1960 H         1 <0>         0.1320
     51 H18         3.8224   -4.3082    8.5846 H         1 <0>         0.1309
     52 H19         5.0987   -1.1075    9.9985 H         1 <0>         0.1336
     53 H20         4.1100   -0.0336   11.9813 H         1 <0>         0.1382
     54 H21         1.0146   -2.9703   12.0263 H         1 <0>         0.1402
     55 H22         1.9987   -4.0365   10.0370 H         1 <0>         0.1364
     56 H23         6.0580   -2.4882    8.9290 H         1 <0>         0.3857
     57 H24         0.6008   -5.5929    4.1133 H         1 <0>         0.0851
     58 H25        -0.7115   -4.4030    4.1773 H         1 <0>         0.0721
     59 H26        -0.0554   -4.5138    1.8912 H         1 <0>         0.0997
     60 H27         1.6739   -4.4710    2.3020 H         1 <0>         0.0922
@<TRIPOS>BOND
     1    1    2 1
     2    1   34 1
     3    1   35 1
     4    1   36 1
     5    2    3 1
     6    3    8 ar
     7    3    4 ar
     8    4    5 ar
     9    4   37 1
    10    5   33 1
    11    5    6 ar
    12    6    7 ar
    13    6   11 1
    14    7    8 ar
    15    7    9 1
    16    8   38 1
    17    9   10 1
    18   10   39 1
    19   10   40 1
    20   10   41 1
    21   11   31 1
    22   11   12 1
    23   11   42 1
    24   12   17 1
    25   12   13 1
    26   12   43 1
    27   13   14 1
    28   13   44 1
    29   13   45 1
    30   14   15 1
    31   14   46 1
    32   14   47 1
    33   15   16 1
    34   15   48 1
    35   15   49 1
    36   16   17 1
    37   16   29 1
    38   16   50 1
    39   17   18 am
    40   18   19 2
    41   18   20 1
    42   20   21 1
    43   20   28 1
    44   20   51 1
    45   21   26 ar
    46   21   22 ar
    47   22   23 ar
    48   22   52 1
    49   23   24 ar
    50   23   53 1
    51   24   25 ar
    52   24   27 1
    53   25   26 ar
    54   25   54 1
    55   26   55 1
    56   28   56 1
    57   29   30 2
    58   29   31 am
    59   31   32 1
    60   32   33 1
    61   32   57 1
    62   32   58 1
    63   33   59 1
    64   33   60 1
@<TRIPOS>MOLECULE
CHEMBL372289__7
   60    64     0     0     0
SMALL
USER_CHARGES

@<TRIPOS>ATOM
      1 C1          2.8043    2.6263   -0.1696 C.3       1 <0>         0.0252
      2 O1          3.0130    1.2275   -0.3742 O.3       1 <0>        -0.3098
      3 C2          3.2952    0.4794    0.7231 C.ar      1 <0>         0.1790
      4 C3          3.5399   -0.8814    0.5996 C.ar      1 <0>        -0.1793
      5 C4          3.7925   -1.6370    1.7227 C.ar      1 <0>         0.0012
      6 C5          3.7828   -1.0672    2.9908 C.ar      1 <0>        -0.1633
      7 C6          3.6298    0.3021    3.1009 C.ar      1 <0>         0.1906
      8 C7          3.3710    1.0723    1.9715 C.ar      1 <0>        -0.3054
      9 O2          3.7797    0.9508    4.2864 O.3       1 <0>        -0.3084
     10 C8          3.5974    2.3681    4.2780 C.3       1 <0>         0.0235
     11 C9          3.9194   -1.9838    4.1721 C.3       1 <0>         0.2040
     12 C10         3.3877   -1.3611    5.4530 C.3       1 <0>         0.1430
     13 C11         1.9594   -0.8583    5.3199 C.3       1 <0>        -0.1176
     14 C12         0.9470   -1.9973    5.2181 C.3       1 <0>        -0.1302
     15 C13         1.1136   -2.9601    6.3980 C.3       1 <0>        -0.1278
     16 C14         2.5442   -3.5340    6.3189 C.3       1 <0>         0.1191
     17 N1          3.4529   -2.3855    6.5185 N.am      1 <0>        -0.6083
     18 C15         4.2718   -2.2734    7.5816 C.2       1 <0>         0.5063
     19 O3          5.0530   -1.3482    7.6504 O.2       1 <0>        -0.5192
     20 C16         4.2176   -3.2975    8.6859 C.3       1 <0>         0.1375
     21 C17         5.0182   -4.5100    8.2862 C.ar      1 <0>        -0.1228
     22 C18         6.3996   -4.4556    8.2832 C.ar      1 <0>        -0.0893
     23 C19         7.1344   -5.5674    7.9168 C.ar      1 <0>        -0.1040
     24 C20         6.4873   -6.7349    7.5529 C.ar      1 <0>        -0.0261
     25 C21         5.1048   -6.7887    7.5561 C.ar      1 <0>        -0.1005
     26 C22         4.3711   -5.6780    7.9282 C.ar      1 <0>        -0.0929
     27 Cl1         7.4096   -8.1315    7.0920 Cl        1 <0>        -0.0618
     28 O4          4.7649   -2.7381    9.8816 O.3       1 <0>        -0.5249
     29 C23         2.7351   -4.0198    4.9050 C.2       1 <0>         0.5152
     30 O5          2.3422   -5.1346    4.6253 O.2       1 <0>        -0.5326
     31 N2          3.3145   -3.2907    3.9308 N.am      1 <0>        -0.5934
     32 C24         3.3021   -3.9024    2.5944 C.3       1 <0>         0.1183
     33 C25         4.1234   -3.1010    1.5961 C.3       1 <0>        -0.0934
     34 H1          3.7019    3.0681    0.2631 H         1 <0>         0.0570
     35 H2          2.5880    3.1049   -1.1247 H         1 <0>         0.1047
     36 H3          1.9639    2.7729    0.5089 H         1 <0>         0.0569
     37 H4          3.5307   -1.3489   -0.3741 H         1 <0>         0.1378
     38 H5          3.2301    2.1385    2.0731 H         1 <0>         0.1401
     39 H6          3.7450    2.7594    5.2846 H         1 <0>         0.1054
     40 H7          4.3206    2.8235    3.6015 H         1 <0>         0.0578
     41 H8          2.5874    2.6025    3.9416 H         1 <0>         0.0571
     42 H9          4.9969   -2.1573    4.3241 H         1 <0>         0.0764
     43 H10         4.0427   -0.5414    5.7570 H         1 <0>         0.1324
     44 H11         1.7111   -0.2437    6.1905 H         1 <0>         0.0725
     45 H12         1.8626   -0.2369    4.4270 H         1 <0>         0.0806
     46 H13        -0.0641   -1.5813    5.2396 H         1 <0>         0.0742
     47 H14         1.0858   -2.5322    4.2804 H         1 <0>         0.0685
     48 H15         0.9820   -2.4241    7.3375 H         1 <0>         0.0876
     49 H16         0.3870   -3.7696    6.3243 H         1 <0>         0.0894
     50 H17         2.7087   -4.3220    7.0497 H         1 <0>         0.1338
     51 H18         3.1818   -3.5878    8.8616 H         1 <0>         0.1309
     52 H19         6.9046   -3.5441    8.5669 H         1 <0>         0.1347
     53 H20         8.2136   -5.5247    7.9141 H         1 <0>         0.1387
     54 H21         4.5991   -7.6996    7.2719 H         1 <0>         0.1405
     55 H22         3.2920   -5.7213    7.9353 H         1 <0>         0.1368
     56 H23         5.6864   -2.4569    9.7983 H         1 <0>         0.3866
     57 H24         3.7137   -4.9113    2.6635 H         1 <0>         0.0845
     58 H25         2.2726   -3.9693    2.2414 H         1 <0>         0.0720
     59 H26         3.8967   -3.4365    0.5839 H         1 <0>         0.0997
     60 H27         5.1865   -3.2487    1.7931 H         1 <0>         0.0916
@<TRIPOS>BOND
     1    1    2 1
     2    1   34 1
     3    1   35 1
     4    1   36 1
     5    2    3 1
     6    3    8 ar
     7    3    4 ar
     8    4    5 ar
     9    4   37 1
    10    5   33 1
    11    5    6 ar
    12    6    7 ar
    13    6   11 1
    14    7    8 ar
    15    7    9 1
    16    8   38 1
    17    9   10 1
    18   10   39 1
    19   10   40 1
    20   10   41 1
    21   11   31 1
    22   11   12 1
    23   11   42 1
    24   12   17 1
    25   12   13 1
    26   12   43 1
    27   13   14 1
    28   13   44 1
    29   13   45 1
    30   14   15 1
    31   14   46 1
    32   14   47 1
    33   15   16 1
    34   15   48 1
    35   15   49 1
    36   16   17 1
    37   16   29 1
    38   16   50 1
    39   17   18 am
    40   18   19 2
    41   18   20 1
    42   20   21 1
    43   20   28 1
    44   20   51 1
    45   21   26 ar
    46   21   22 ar
    47   22   23 ar
    48   22   52 1
    49   23   24 ar
    50   23   53 1
    51   24   25 ar
    52   24   27 1
    53   25   26 ar
    54   25   54 1
    55   26   55 1
    56   28   56 1
    57   29   30 2
    58   29   31 am
    59   31   32 1
    60   32   33 1
    61   32   57 1
    62   32   58 1
    63   33   59 1
    64   33   60 1
@<TRIPOS>MOLECULE
CHEMBL119280
   52    53     0     0     0
SMALL
USER_CHARGES

@<TRIPOS>ATOM
      1 C1         -0.0187    1.5258    0.0104 C.3       1 <0>        -0.1555
      2 C2          0.0021   -0.0041    0.0020 C.3       1 <0>        -0.1076
      3 C3          0.7421   -0.5109    1.2415 C.3       1 <0>        -0.0877
      4 C4          2.1775    0.0187    1.2307 C.3       1 <0>        -0.1454
      5 C5          0.0259   -0.0175    2.5003 C.3       1 <0>        -0.1459
      6 C6          0.7625   -2.0177    1.2333 C.2       1 <0>         0.3675
      7 O1          0.2391   -2.6238    0.3291 O.2       1 <0>        -0.4138
      8 C7          1.4288   -2.7603    2.3411 C.2       1 <0>         0.4973
      9 O2          1.9547   -2.1513    3.2497 O.2       1 <0>        -0.4916
     10 N1          1.4470   -4.1079    2.3337 N.am      1 <0>        -0.5854
     11 C8          0.8554   -4.9695    1.2940 C.3       1 <0>         0.0940
     12 C9          1.6419   -6.3009    1.3875 C.3       1 <0>        -0.1368
     13 C10         1.8600   -6.4270    2.9184 C.3       1 <0>        -0.1230
     14 C11         2.0658   -4.9621    3.3579 C.3       1 <0>         0.1105
     15 H1          1.5835   -4.7948    4.3210 H         1 <0>         0.1166
     16 C12         3.5381   -4.6567    3.4589 C.2       1 <0>         0.2974
     17 O3          4.0317   -3.8075    2.7467 O.2       1 <0>        -0.4348
     18 S1          4.4844   -5.4820    4.5447 S.3       1 <0>        -0.0985
     19 C13         6.1408   -4.7830    4.3032 C.3       1 <0>        -0.0915
     20 C14         7.1256   -5.4642    5.2556 C.3       1 <0>        -0.0632
     21 C15         8.5017   -4.8835    5.0550 C.ar      1 <0>        -0.0843
     22 C16         9.3601   -5.4442    4.1279 C.ar      1 <0>        -0.1133
     23 C17        10.6224   -4.9115    3.9439 C.ar      1 <0>        -0.1182
     24 C18        11.0261   -3.8179    4.6868 C.ar      1 <0>        -0.1194
     25 C19        10.1673   -3.2566    5.6133 C.ar      1 <0>        -0.1177
     26 C20         8.9035   -3.7867    5.7942 C.ar      1 <0>        -0.1127
     27 H2          1.0039    1.9031    0.0027 H         1 <0>         0.0599
     28 H3         -0.5459    1.8868   -0.8726 H         1 <0>         0.0583
     29 H4         -0.5289    1.8773    0.9072 H         1 <0>         0.0601
     30 H5         -1.0205   -0.3814    0.0098 H         1 <0>         0.0689
     31 H6          0.5123   -0.3556   -0.8948 H         1 <0>         0.0684
     32 H7          2.1627    1.1086    1.2367 H         1 <0>         0.0748
     33 H8          2.7046   -0.3424    2.1137 H         1 <0>         0.0783
     34 H9          2.6876   -0.3328    0.3339 H         1 <0>         0.0553
     35 H10        -0.9967   -0.3948    2.5081 H         1 <0>         0.0562
     36 H11         0.5531   -0.3786    3.3834 H         1 <0>         0.0776
     37 H12         0.0111    1.0724    2.5063 H         1 <0>         0.0757
     38 H13        -0.2019   -5.1384    1.4977 H         1 <0>         0.0802
     39 H14         0.9859   -4.5202    0.3095 H         1 <0>         0.0983
     40 H15         1.0486   -7.1326    1.0075 H         1 <0>         0.0967
     41 H16         2.5941   -6.2299    0.8617 H         1 <0>         0.0777
     42 H17         0.9816   -6.8578    3.3989 H         1 <0>         0.0975
     43 H18         2.7487   -7.0203    3.1338 H         1 <0>         0.0974
     44 H19         6.4582   -4.9477    3.2736 H         1 <0>         0.0958
     45 H20         6.1172   -3.7129    4.5094 H         1 <0>         0.0971
     46 H21         6.8083   -5.2995    6.2853 H         1 <0>         0.0866
     47 H22         7.1492   -6.5343    5.0495 H         1 <0>         0.0863
     48 H23         9.0447   -6.2986    3.5475 H         1 <0>         0.1227
     49 H24        11.2933   -5.3500    3.2200 H         1 <0>         0.1235
     50 H25        12.0125   -3.4021    4.5435 H         1 <0>         0.1228
     51 H26        10.4829   -2.4024    6.1939 H         1 <0>         0.1238
     52 H27         8.2312   -3.3459    6.5155 H         1 <0>         0.1232
@<TRIPOS>BOND
     1    1    2 1
     2    1   27 1
     3    1   28 1
     4    1   29 1
     5    2    3 1
     6    2   30 1
     7    2   31 1
     8    3    4 1
     9    3    5 1
    10    3    6 1
    11    4   32 1
    12    4   33 1
    13    4   34 1
    14    5   35 1
    15    5   36 1
    16    5   37 1
    17    6    7 2
    18    6    8 1
    19    8    9 2
    20    8   10 am
    21   10   14 1
    22   10   11 1
    23   11   12 1
    24   11   38 1
    25   11   39 1
    26   12   13 1
    27   12   40 1
    28   12   41 1
    29   13   14 1
    30   13   42 1
    31   13   43 1
    32   14   15 1
    33   14   16 1
    34   16   17 2
    35   16   18 1
    36   18   19 1
    37   19   20 1
    38   19   44 1
    39   19   45 1
    40   20   21 1
    41   20   46 1
    42   20   47 1
    43   21   26 ar
    44   21   22 ar
    45   22   23 ar
    46   22   48 1
    47   23   24 ar
    48   23   49 1
    49   24   25 ar
    50   24   50 1
    51   25   26 ar
    52   25   51 1
    53   26   52 1
@<TRIPOS>MOLECULE
CHEMBL118858
   54    55     0     0     0
SMALL
USER_CHARGES

@<TRIPOS>ATOM
      1 C1         -0.0187    1.5258    0.0104 C.3       1 <0>        -0.1555
      2 C2          0.0021   -0.0041    0.0020 C.3       1 <0>        -0.1077
      3 C3          0.7182   -0.4975   -1.2568 C.3       1 <0>        -0.0876
      4 C4         -0.0218    0.0093   -2.4963 C.3       1 <0>        -0.1453
      5 C5          2.1536    0.0321   -1.2676 C.3       1 <0>        -0.1460
      6 C6          0.7386   -2.0043   -1.2651 C.2       1 <0>         0.3673
      7 O1          0.2326   -2.6202   -0.3576 O.2       1 <0>        -0.4137
      8 C7          1.3836   -2.7349   -2.3934 C.2       1 <0>         0.4975
      9 O2          1.8921   -2.1161   -3.3052 O.2       1 <0>        -0.4920
     10 N1          1.4018   -4.0825   -2.4008 N.am      1 <0>        -0.5853
     11 C8          0.8189   -4.9554   -1.3656 C.3       1 <0>         0.0939
     12 C9          0.5402   -6.2967   -2.0888 C.3       1 <0>        -0.1367
     13 C10         1.7600   -6.3955   -3.0427 C.3       1 <0>        -0.1232
     14 C11         2.0009   -4.9256   -3.4458 C.3       1 <0>         0.1102
     15 H1          3.0715   -4.7316   -3.5101 H         1 <0>         0.1164
     16 C12         1.3449   -4.6411   -4.7724 C.2       1 <0>         0.2972
     17 O3          0.4602   -3.8142   -4.8467 O.2       1 <0>        -0.4359
     18 S1          1.8328   -5.4592   -6.1319 S.3       1 <0>        -0.0976
     19 C13         0.7785   -4.7911   -7.4481 C.3       1 <0>        -0.0986
     20 C14         1.1280   -5.4684   -8.7748 C.3       1 <0>        -0.0986
     21 C15         0.2387   -4.9048   -9.8850 C.3       1 <0>        -0.0709
     22 C16         0.5830   -5.5719  -11.1917 C.ar      1 <0>        -0.1358
     23 C17         1.5600   -5.0364  -12.0174 C.ar      1 <0>        -0.0721
     24 C18         1.8434   -5.6839  -13.2099 C.ar      1 <0>        -0.1695
     25 C19         1.1479   -6.8336  -13.5340 C.ar      1 <0>         0.0949
     26 N2          0.2247   -7.3142  -12.7245 N.ar      1 <0>        -0.4830
     27 C20        -0.0668   -6.7281  -11.5795 C.ar      1 <0>         0.1024
     28 H2          1.0039    1.9031    0.0027 H         1 <0>         0.0601
     29 H3         -0.5459    1.8868   -0.8726 H         1 <0>         0.0599
     30 H4         -0.5289    1.8773    0.9072 H         1 <0>         0.0584
     31 H5          0.5293   -0.3651    0.8851 H         1 <0>         0.0689
     32 H6         -1.0205   -0.3814    0.0098 H         1 <0>         0.0684
     33 H7         -0.0366    1.0992   -2.4903 H         1 <0>         0.0748
     34 H8          0.4884   -0.3422   -3.3931 H         1 <0>         0.0782
     35 H9         -1.0444   -0.3679   -2.4886 H         1 <0>         0.0554
     36 H10         2.6808   -0.3290   -0.3846 H         1 <0>         0.0562
     37 H11         2.6638   -0.3194   -2.1644 H         1 <0>         0.0775
     38 H12         2.1388    1.1220   -1.2617 H         1 <0>         0.0757
     39 H13         1.5279   -5.1037   -0.5511 H         1 <0>         0.0802
     40 H14        -0.1100   -4.5279   -0.9880 H         1 <0>         0.0984
     41 H15         0.5286   -7.1265   -1.3821 H         1 <0>         0.0967
     42 H16        -0.3926   -6.2511   -2.6508 H         1 <0>         0.0778
     43 H17         2.6258   -6.8030   -2.5206 H         1 <0>         0.0974
     44 H18         1.5172   -6.9982   -3.9179 H         1 <0>         0.0974
     45 H19        -0.2675   -4.9813   -7.2076 H         1 <0>         0.0966
     46 H20         0.9419   -3.7169   -7.5345 H         1 <0>         0.0971
     47 H21         2.1740   -5.2782   -9.0153 H         1 <0>         0.0783
     48 H22         0.9646   -6.5426   -8.6884 H         1 <0>         0.0793
     49 H23        -0.8072   -5.0950   -9.6444 H         1 <0>         0.0812
     50 H24         0.4022   -3.8306   -9.9713 H         1 <0>         0.0797
     51 H25         2.0871   -4.1361  -11.7382 H         1 <0>         0.1345
     52 H26         2.5980   -5.2947  -13.8775 H         1 <0>         0.1363
     53 H27         1.3628   -7.3439  -14.4613 H         1 <0>         0.1563
     54 H28        -0.8254   -7.1542  -10.9397 H         1 <0>         0.1545
@<TRIPOS>BOND
     1    1    2 1
     2    1   28 1
     3    1   29 1
     4    1   30 1
     5    2    3 1
     6    2   31 1
     7    2   32 1
     8    3    4 1
     9    3    5 1
    10    3    6 1
    11    4   33 1
    12    4   34 1
    13    4   35 1
    14    5   36 1
    15    5   37 1
    16    5   38 1
    17    6    7 2
    18    6    8 1
    19    8    9 2
    20    8   10 am
    21   10   14 1
    22   10   11 1
    23   11   12 1
    24   11   39 1
    25   11   40 1
    26   12   13 1
    27   12   41 1
    28   12   42 1
    29   13   14 1
    30   13   43 1
    31   13   44 1
    32   14   15 1
    33   14   16 1
    34   16   17 2
    35   16   18 1
    36   18   19 1
    37   19   20 1
    38   19   45 1
    39   19   46 1
    40   20   21 1
    41   20   47 1
    42   20   48 1
    43   21   22 1
    44   21   49 1
    45   21   50 1
    46   22   27 ar
    47   22   23 ar
    48   23   24 ar
    49   23   51 1
    50   24   25 ar
    51   24   52 1
    52   25   26 ar
    53   25   53 1
    54   26   27 ar
    55   27   54 1
@<TRIPOS>MOLECULE
CHEMBL414675
   62    66     0     0     0
SMALL
USER_CHARGES

@<TRIPOS>ATOM
      1 C1         -4.7915   -7.4128   -1.1020 C.3       1 <0>        -0.1475
      2 C2         -4.3698   -6.0565   -1.6705 C.3       1 <0>         0.0768
      3 H1         -3.5129   -6.1891   -2.3310 H         1 <0>         0.0638
      4 C3         -3.9898   -5.1154   -0.5216 C.3       1 <0>         0.0881
      5 N1         -3.7705   -3.7703   -1.0766 N.pl3     1 <0>        -1.0077
      6 C4         -4.8108   -3.2046   -1.9502 C.3       1 <0>         0.0933
      7 C5         -5.1507   -4.2387   -3.0296 C.3       1 <0>         0.0763
      8 H2         -4.2969   -4.3640   -3.6955 H         1 <0>         0.0639
      9 O1         -5.4561   -5.4883   -2.4060 O.3       1 <0>        -0.3680
     10 C6         -6.3603   -3.7588   -3.8342 C.3       1 <0>        -0.1471
     11 S1         -2.3941   -2.9183   -0.7279 S.o2      1 <0>         2.7809
     12 O2         -2.7438   -1.5420   -0.7814 O.2       1 <0>        -0.9584
     13 O3         -1.8289   -3.5161    0.4307 O.2       1 <0>        -0.9632
     14 N2         -1.3269   -3.1839   -1.9660 N.pl3     1 <0>        -1.0027
     15 C7         -1.1872   -2.2552   -3.1018 C.3       1 <0>         0.1428
     16 C8         -1.5204   -3.0263   -4.3860 C.3       1 <0>        -0.1316
     17 C9         -0.5838   -4.2309   -4.5041 C.3       1 <0>        -0.1258
     18 C10        -0.7650   -5.1485   -3.2935 C.3       1 <0>        -0.1234
     19 C11        -0.4403   -4.3676   -2.0089 C.3       1 <0>         0.1411
     20 C12         0.9712   -3.8387   -2.0944 C.2       1 <0>         0.5259
     21 O4          1.8938   -4.5383   -1.7333 O.2       1 <0>        -0.5305
     22 N3          1.2206   -2.6078   -2.5637 N.am      1 <0>        -0.5918
     23 C13         0.2396   -1.7424   -3.1763 C.3       1 <0>         0.1898
     24 C14         0.3469   -0.3486   -2.6197 C.ar      1 <0>        -0.1431
     25 C15        -0.6749    0.5496   -2.8935 C.ar      1 <0>        -0.0634
     26 C16        -0.6184    1.8423   -2.4169 C.ar      1 <0>        -0.2015
     27 C17         0.4704    2.2476   -1.6581 C.ar      1 <0>         0.1365
     28 C18         1.4867    1.3496   -1.3814 C.ar      1 <0>        -0.1540
     29 C19         1.4256    0.0467   -1.8568 C.ar      1 <0>        -0.0260
     30 C20         2.5513   -0.8857   -1.4949 C.3       1 <0>        -0.1006
     31 C21         2.5939   -2.0728   -2.4471 C.3       1 <0>         0.1048
     32 O5          0.5387    3.5212   -1.1889 O.3       1 <0>        -0.3164
     33 C22        -0.5466    4.3918   -1.5148 C.3       1 <0>         0.0260
     34 H3         -5.1451   -8.0519   -1.9111 H         1 <0>         0.0705
     35 H4         -3.9381   -7.8834   -0.6138 H         1 <0>         0.0763
     36 H5         -5.5918   -7.2695   -0.3760 H         1 <0>         0.0675
     37 H6         -4.7978   -5.0837    0.2094 H         1 <0>         0.0849
     38 H7         -3.0759   -5.4691   -0.0443 H         1 <0>         0.0994
     39 H8         -5.7013   -2.9805   -1.3631 H         1 <0>         0.0845
     40 H9         -4.4405   -2.2928   -2.4190 H         1 <0>         0.0934
     41 H10        -6.1271   -2.8045   -4.3065 H         1 <0>         0.0750
     42 H11        -6.6014   -4.4946   -4.6014 H         1 <0>         0.0696
     43 H12        -7.2141   -3.6355   -3.1680 H         1 <0>         0.0680
     44 H13        -1.8722   -1.4166   -2.9765 H         1 <0>         0.1224
     45 H14        -2.5538   -3.3707   -4.3465 H         1 <0>         0.0776
     46 H15        -1.3852   -2.3737   -5.2485 H         1 <0>         0.0859
     47 H16        -0.8162   -4.7827   -5.4150 H         1 <0>         0.0779
     48 H17         0.4488   -3.8844   -4.5449 H         1 <0>         0.0696
     49 H18        -1.7954   -5.5019   -3.2562 H         1 <0>         0.0812
     50 H19        -0.0911   -6.0009   -3.3793 H         1 <0>         0.0882
     51 H20        -0.5809   -4.9914   -1.1262 H         1 <0>         0.1344
     52 H21         0.4970   -1.6708   -4.2330 H         1 <0>         0.0898
     53 H22        -1.5213    0.2336   -3.4853 H         1 <0>         0.1283
     54 H23        -1.4174    2.5359   -2.6334 H         1 <0>         0.1324
     55 H24         2.3342    1.6652   -0.7912 H         1 <0>         0.1323
     56 H25         3.4963   -0.3457   -1.5557 H         1 <0>         0.0939
     57 H26         2.4081   -1.2397   -0.4740 H         1 <0>         0.0859
     58 H27         3.2543   -2.8361   -2.0357 H         1 <0>         0.1066
     59 H28         2.9537   -1.7609   -3.4276 H         1 <0>         0.0817
     60 H29        -1.4740    3.9817   -1.1149 H         1 <0>         0.0574
     61 H30        -0.3668    5.3750   -1.0801 H         1 <0>         0.1018
     62 H31        -0.6268    4.4826   -2.5981 H         1 <0>         0.0568
@<TRIPOS>BOND
     1    1    2 1
     2    1   34 1
     3    1   35 1
     4    1   36 1
     5    2    3 1
     6    2    9 1
     7    2    4 1
     8    4    5 1
     9    4   37 1
    10    4   38 1
    11    5    6 1
    12    5   11 1
    13    6    7 1
    14    6   39 1
    15    6   40 1
    16    7    8 1
    17    7    9 1
    18    7   10 1
    19   10   41 1
    20   10   42 1
    21   10   43 1
    22   11   12 2
    23   11   13 2
    24   11   14 1
    25   14   19 1
    26   14   15 1
    27   15   23 1
    28   15   16 1
    29   15   44 1
    30   16   17 1
    31   16   45 1
    32   16   46 1
    33   17   18 1
    34   17   47 1
    35   17   48 1
    36   18   19 1
    37   18   49 1
    38   18   50 1
    39   19   20 1
    40   19   51 1
    41   20   21 2
    42   20   22 am
    43   22   31 1
    44   22   23 1
    45   23   24 1
    46   23   52 1
    47   24   29 ar
    48   24   25 ar
    49   25   26 ar
    50   25   53 1
    51   26   27 ar
    52   26   54 1
    53   27   28 ar
    54   27   32 1
    55   28   29 ar
    56   28   55 1
    57   29   30 1
    58   30   31 1
    59   30   56 1
    60   30   57 1
    61   31   58 1
    62   31   59 1
    63   32   33 1
    64   33   60 1
    65   33   61 1
    66   33   62 1
@<TRIPOS>MOLECULE
CHEMBL414675__1
   62    66     0     0     0
SMALL
USER_CHARGES

@<TRIPOS>ATOM
      1 C1         -0.0187    1.5258    0.0104 C.3       1 <0>        -0.1465
      2 C2          0.0021   -0.0041    0.0020 C.3       1 <0>         0.0765
      3 H1          0.5121   -0.3563   -0.8946 H         1 <0>         0.0597
      4 C3         -1.4357   -0.5357    0.0154 C.3       1 <0>         0.0909
      5 N1         -1.3891   -1.9954    0.1960 N.pl3     1 <0>        -1.0086
      6 C4         -0.5783   -2.5300    1.3016 C.3       1 <0>         0.0914
      7 C5          0.8176   -1.9012    1.2255 C.3       1 <0>         0.0779
      8 H2          1.3309   -2.2611    0.3338 H         1 <0>         0.0609
      9 O1          0.6913   -0.4787    1.1611 O.3       1 <0>        -0.3671
     10 C6          1.6209   -2.2882    2.4688 C.3       1 <0>        -0.1456
     11 S1         -2.2247   -3.0065   -0.8147 S.o2      1 <0>         2.7821
     12 O2         -2.4435   -4.2114   -0.0939 O.2       1 <0>        -0.9606
     13 O3         -3.2902   -2.2428   -1.3632 O.2       1 <0>        -0.9622
     14 N2         -1.2164   -3.3840   -2.0729 N.pl3     1 <0>        -1.0054
     15 C7         -1.1499   -2.5802   -3.3072 C.3       1 <0>         0.1463
     16 C8         -1.4720   -3.4674   -4.5060 C.3       1 <0>        -0.1615
     17 C9         -0.5917   -4.7163   -4.5078 C.3       1 <0>        -0.1246
     18 C10        -0.7682   -5.4807   -3.1914 C.3       1 <0>        -0.1224
     19 C11        -0.3072   -4.5507   -2.0440 C.3       1 <0>         0.1439
     20 C12         1.0717   -4.0567   -2.3992 C.2       1 <0>         0.5161
     21 O4          2.0280   -4.7092   -2.0378 O.2       1 <0>        -0.5314
     22 N3          1.2951   -2.9286   -3.0963 N.am      1 <0>        -0.5907
     23 C13         0.2436   -1.9807   -3.4237 C.3       1 <0>         0.1881
     24 C14         0.4607   -1.4527   -4.8180 C.ar      1 <0>        -0.1401
     25 C15        -0.5749   -1.3033   -5.7131 C.ar      1 <0>        -0.0712
     26 C16        -0.3182   -0.8114   -6.9806 C.ar      1 <0>        -0.2113
     27 C17         0.9763   -0.4710   -7.3463 C.ar      1 <0>         0.1408
     28 C18         2.0184   -0.6243   -6.4402 C.ar      1 <0>        -0.1419
     29 C19         1.7561   -1.1145   -5.1818 C.ar      1 <0>        -0.0325
     30 C20         2.8415   -1.3060   -4.1551 C.3       1 <0>        -0.0925
     31 C21         2.6842   -2.6634   -3.5029 C.3       1 <0>         0.1195
     32 O5          1.2251    0.0124   -8.5918 O.3       1 <0>        -0.3155
     33 C22         0.1070    0.1437   -9.4720 C.3       1 <0>         0.0257
     34 H3          1.0039    1.9031    0.0027 H         1 <0>         0.0693
     35 H4         -0.5459    1.8868   -0.8726 H         1 <0>         0.0752
     36 H5         -0.5289    1.8773    0.9072 H         1 <0>         0.0688
     37 H6         -1.9874   -0.0814    0.8384 H         1 <0>         0.0862
     38 H7         -1.9238   -0.2981   -0.9298 H         1 <0>         0.0961
     39 H8         -1.0437   -2.2765    2.2541 H         1 <0>         0.0862
     40 H9         -0.4987   -3.6131    1.2081 H         1 <0>         0.0966
     41 H10         1.7137   -3.3731    2.5183 H         1 <0>         0.0761
     42 H11         2.6133   -1.8407    2.4140 H         1 <0>         0.0691
     43 H12         1.1079   -1.9264    3.3599 H         1 <0>         0.0681
     44 H13        -1.8849   -1.7770   -3.2547 H         1 <0>         0.1173
     45 H14        -2.5191   -3.7666   -4.4598 H         1 <0>         0.0784
     46 H15        -1.3001   -2.9060   -5.4243 H         1 <0>         0.1136
     47 H16        -0.8768   -5.3590   -5.3407 H         1 <0>         0.0742
     48 H17         0.4523   -4.4233   -4.6192 H         1 <0>         0.0703
     49 H18        -1.8167   -5.7461   -3.0559 H         1 <0>         0.0866
     50 H19        -0.1564   -6.3828   -3.2030 H         1 <0>         0.0862
     51 H20        -0.3278   -5.0553   -1.0781 H         1 <0>         0.1392
     52 H21         0.3138   -1.1394   -2.7342 H         1 <0>         0.0810
     53 H22        -1.5820   -1.5690   -5.4276 H         1 <0>         0.1479
     54 H23        -1.1267   -0.6925   -7.6866 H         1 <0>         0.1329
     55 H24         3.0272   -0.3609   -6.7219 H         1 <0>         0.1351
     56 H25         3.8154   -1.2439   -4.6405 H         1 <0>         0.0979
     57 H26         2.7644   -0.5276   -3.3960 H         1 <0>         0.0882
     58 H27         3.3253   -2.7026   -2.6223 H         1 <0>         0.0817
     59 H28         3.0015   -3.4338   -4.2056 H         1 <0>         0.0718
     60 H29        -0.6223    0.8249   -9.0338 H         1 <0>         0.0580
     61 H30         0.4436    0.5391  -10.4304 H         1 <0>         0.1025
     62 H31        -0.3529   -0.8329   -9.6233 H         1 <0>         0.0574
@<TRIPOS>BOND
     1    1    2 1
     2    1   34 1
     3    1   35 1
     4    1   36 1
     5    2    3 1
     6    2    9 1
     7    2    4 1
     8    4    5 1
     9    4   37 1
    10    4   38 1
    11    5    6 1
    12    5   11 1
    13    6    7 1
    14    6   39 1
    15    6   40 1
    16    7    8 1
    17    7    9 1
    18    7   10 1
    19   10   41 1
    20   10   42 1
    21   10   43 1
    22   11   12 2
    23   11   13 2
    24   11   14 1
    25   14   19 1
    26   14   15 1
    27   15   23 1
    28   15   16 1
    29   15   44 1
    30   16   17 1
    31   16   45 1
    32   16   46 1
    33   17   18 1
    34   17   47 1
    35   17   48 1
    36   18   19 1
    37   18   49 1
    38   18   50 1
    39   19   20 1
    40   19   51 1
    41   20   21 2
    42   20   22 am
    43   22   31 1
    44   22   23 1
    45   23   24 1
    46   23   52 1
    47   24   29 ar
    48   24   25 ar
    49   25   26 ar
    50   25   53 1
    51   26   27 ar
    52   26   54 1
    53   27   28 ar
    54   27   32 1
    55   28   29 ar
    56   28   55 1
    57   29   30 1
    58   30   31 1
    59   30   56 1
    60   30   57 1
    61   31   58 1
    62   31   59 1
    63   32   33 1
    64   33   60 1
    65   33   61 1
    66   33   62 1
@<TRIPOS>MOLECULE
CHEMBL414675__2
   62    66     0     0     0
SMALL
USER_CHARGES

@<TRIPOS>ATOM
      1 C1         -0.0187    1.5258    0.0104 C.3       1 <0>        -0.1471
      2 C2          0.0021   -0.0041    0.0020 C.3       1 <0>         0.0764
      3 H1          0.5121   -0.3563   -0.8946 H         1 <0>         0.0634
      4 C3         -1.4357   -0.5357    0.0154 C.3       1 <0>         0.0911
      5 N1         -1.3891   -1.9954    0.1960 N.pl3     1 <0>        -1.0069
      6 C4         -0.5783   -2.5300    1.3016 C.3       1 <0>         0.0903
      7 C5          0.8176   -1.9012    1.2255 C.3       1 <0>         0.0762
      8 H2          1.3309   -2.2611    0.3338 H         1 <0>         0.0641
      9 O1          0.6913   -0.4787    1.1611 O.3       1 <0>        -0.3679
     10 C6          1.6209   -2.2882    2.4688 C.3       1 <0>        -0.1474
     11 S1         -2.2247   -3.0065   -0.8147 S.o2      1 <0>         2.7822
     12 O2         -2.4435   -4.2114   -0.0939 O.2       1 <0>        -0.9609
     13 O3         -3.2902   -2.2428   -1.3632 O.2       1 <0>        -0.9626
     14 N2         -1.2164   -3.3840   -2.0729 N.pl3     1 <0>        -1.0055
     15 C7         -1.1502   -2.5800   -3.3071 C.3       1 <0>         0.1486
     16 C8          0.2797   -2.0896   -3.5138 C.3       1 <0>        -0.1644
     17 C9          1.2662   -3.2550   -3.4561 C.3       1 <0>        -0.1229
     18 C10         1.1233   -3.9931   -2.1207 C.3       1 <0>        -0.1274
     19 C11        -0.3073   -4.5507   -2.0437 C.3       1 <0>         0.1436
     20 C12        -0.5414   -5.3361   -3.3084 C.2       1 <0>         0.5195
     21 O4         -0.2454   -6.5122   -3.3190 O.2       1 <0>        -0.5324
     22 N3         -1.0623   -4.7987   -4.4257 N.am      1 <0>        -0.5950
     23 C13        -1.6124   -3.4402   -4.4739 C.3       1 <0>         0.1898
     24 C14        -1.2327   -2.7851   -5.7765 C.ar      1 <0>        -0.1370
     25 C15        -0.7976   -1.4804   -5.8401 C.ar      1 <0>        -0.0719
     26 C16        -0.4640   -0.9288   -7.0642 C.ar      1 <0>        -0.2116
     27 C17        -0.5680   -1.6879   -8.2211 C.ar      1 <0>         0.1398
     28 C18        -1.0071   -3.0044   -8.1526 C.ar      1 <0>        -0.1412
     29 C19        -1.3362   -3.5464   -6.9317 C.ar      1 <0>        -0.0318
     30 C20        -1.8152   -4.9674   -6.7898 C.3       1 <0>        -0.0936
     31 C21        -1.0808   -5.6500   -5.6259 C.3       1 <0>         0.1199
     32 O5         -0.2406   -1.1432   -9.4222 O.3       1 <0>        -0.3155
     33 C22         0.2028    0.2153   -9.4192 C.3       1 <0>         0.0259
     34 H3          1.0039    1.9031    0.0027 H         1 <0>         0.0693
     35 H4         -0.5459    1.8868   -0.8726 H         1 <0>         0.0752
     36 H5         -0.5289    1.8773    0.9072 H         1 <0>         0.0682
     37 H6         -1.9874   -0.0814    0.8384 H         1 <0>         0.0849
     38 H7         -1.9238   -0.2981   -0.9298 H         1 <0>         0.0963
     39 H8         -1.0437   -2.2765    2.2541 H         1 <0>         0.0853
     40 H9         -0.4987   -3.6131    1.2081 H         1 <0>         0.0976
     41 H10         1.7137   -3.3731    2.5183 H         1 <0>         0.0763
     42 H11         2.6133   -1.8407    2.4140 H         1 <0>         0.0694
     43 H12         1.1079   -1.9264    3.3599 H         1 <0>         0.0681
     44 H13        -1.8094   -1.7172   -3.2114 H         1 <0>         0.1156
     45 H14         0.3551   -1.6036   -4.4865 H         1 <0>         0.1147
     46 H15         0.5285   -1.3701   -2.7338 H         1 <0>         0.0732
     47 H16         1.0604   -3.9446   -4.2748 H         1 <0>         0.0721
     48 H17         2.2829   -2.8739   -3.5522 H         1 <0>         0.0731
     49 H18         1.8426   -4.8105   -2.0715 H         1 <0>         0.0873
     50 H19         1.2927   -3.3008   -1.2960 H         1 <0>         0.0816
     51 H20        -0.4551   -5.1560   -1.1493 H         1 <0>         0.1410
     52 H21        -2.6997   -3.5090   -4.4399 H         1 <0>         0.0892
     53 H22        -0.7175   -0.8905   -4.9390 H         1 <0>         0.1461
     54 H23        -0.1225    0.0943   -7.1196 H         1 <0>         0.1326
     55 H24        -1.0897   -3.5977   -9.0512 H         1 <0>         0.1355
     56 H25        -2.8874   -4.9711   -6.5939 H         1 <0>         0.0901
     57 H26        -1.6133   -5.5123   -7.7120 H         1 <0>         0.0968
     58 H27        -0.0548   -5.8589   -5.9287 H         1 <0>         0.0715
     59 H28        -1.5769   -6.5905   -5.3862 H         1 <0>         0.0840
     60 H29         1.0980    0.3040   -8.8036 H         1 <0>         0.0570
     61 H30         0.4310    0.5253  -10.4390 H         1 <0>         0.1023
     62 H31        -0.5823    0.8529   -9.0128 H         1 <0>         0.0577
@<TRIPOS>BOND
     1    1    2 1
     2    1   34 1
     3    1   35 1
     4    1   36 1
     5    2    3 1
     6    2    9 1
     7    2    4 1
     8    4    5 1
     9    4   37 1
    10    4   38 1
    11    5    6 1
    12    5   11 1
    13    6    7 1
    14    6   39 1
    15    6   40 1
    16    7    8 1
    17    7    9 1
    18    7   10 1
    19   10   41 1
    20   10   42 1
    21   10   43 1
    22   11   12 2
    23   11   13 2
    24   11   14 1
    25   14   19 1
    26   14   15 1
    27   15   23 1
    28   15   16 1
    29   15   44 1
    30   16   17 1
    31   16   45 1
    32   16   46 1
    33   17   18 1
    34   17   47 1
    35   17   48 1
    36   18   19 1
    37   18   49 1
    38   18   50 1
    39   19   20 1
    40   19   51 1
    41   20   21 2
    42   20   22 am
    43   22   31 1
    44   22   23 1
    45   23   24 1
    46   23   52 1
    47   24   29 ar
    48   24   25 ar
    49   25   26 ar
    50   25   53 1
    51   26   27 ar
    52   26   54 1
    53   27   28 ar
    54   27   32 1
    55   28   29 ar
    56   28   55 1
    57   29   30 1
    58   30   31 1
    59   30   56 1
    60   30   57 1
    61   31   58 1
    62   31   59 1
    63   32   33 1
    64   33   60 1
    65   33   61 1
    66   33   62 1
@<TRIPOS>MOLECULE
CHEMBL414675__3
   62    66     0     0     0
SMALL
USER_CHARGES

@<TRIPOS>ATOM
      1 C1         -0.0187    1.5258    0.0104 C.3       1 <0>        -0.1472
      2 C2          0.0021   -0.0041    0.0020 C.3       1 <0>         0.0763
      3 H1          0.5121   -0.3563   -0.8946 H         1 <0>         0.0637
      4 C3         -1.4357   -0.5357    0.0154 C.3       1 <0>         0.0914
      5 N1         -1.3891   -1.9954    0.1960 N.pl3     1 <0>        -1.0078
      6 C4         -0.5783   -2.5300    1.3016 C.3       1 <0>         0.0899
      7 C5          0.8176   -1.9012    1.2255 C.3       1 <0>         0.0768
      8 H2          1.3309   -2.2611    0.3338 H         1 <0>         0.0638
      9 O1          0.6913   -0.4787    1.1611 O.3       1 <0>        -0.3679
     10 C6          1.6209   -2.2882    2.4688 C.3       1 <0>        -0.1475
     11 S1         -2.2247   -3.0065   -0.8147 S.o2      1 <0>         2.7804
     12 O2         -2.4435   -4.2114   -0.0939 O.2       1 <0>        -0.9630
     13 O3         -3.2902   -2.2428   -1.3632 O.2       1 <0>        -0.9576
     14 N2         -1.2164   -3.3840   -2.0729 N.pl3     1 <0>        -1.0019
     15 C7         -1.1538   -2.5772   -3.3047 C.3       1 <0>         0.1443
     16 C8          0.2817   -2.0547   -3.4538 C.3       1 <0>        -0.1322
     17 C9          1.2447   -3.2436   -3.4916 C.3       1 <0>        -0.1256
     18 C10         1.1251   -4.0485   -2.1961 C.3       1 <0>        -0.1250
     19 C11        -0.3090   -4.5519   -2.0390 C.3       1 <0>         0.1404
     20 C12        -0.6635   -5.4002   -3.2366 C.2       1 <0>         0.5252
     21 O4         -0.3905   -6.5819   -3.2330 O.2       1 <0>        -0.5313
     22 N3         -1.2751   -4.8673   -4.3042 N.am      1 <0>        -0.5941
     23 C13        -1.5031   -3.4393   -4.5042 C.3       1 <0>         0.1903
     24 C14        -2.9116   -3.1845   -4.9673 C.ar      1 <0>        -0.1410
     25 C15        -3.3836   -1.8796   -4.9519 C.ar      1 <0>        -0.0631
     26 C16        -4.6629   -1.5917   -5.3784 C.ar      1 <0>        -0.2011
     27 C17        -5.4841   -2.6162   -5.8277 C.ar      1 <0>         0.1368
     28 C18        -5.0140   -3.9181   -5.8382 C.ar      1 <0>        -0.1537
     29 C19        -3.7281   -4.2074   -5.4021 C.ar      1 <0>        -0.0243
     30 C20        -3.2913   -5.6484   -5.4124 C.3       1 <0>        -0.1010
     31 C21        -1.7627   -5.7746   -5.3647 C.3       1 <0>         0.1059
     32 O5         -6.7448   -2.3425   -6.2550 O.3       1 <0>        -0.3164
     33 C22        -7.1611   -0.9761   -6.2150 C.3       1 <0>         0.0261
     34 H3          1.0039    1.9031    0.0027 H         1 <0>         0.0696
     35 H4         -0.5459    1.8868   -0.8726 H         1 <0>         0.0752
     36 H5         -0.5289    1.8773    0.9072 H         1 <0>         0.0680
     37 H6         -1.9874   -0.0814    0.8384 H         1 <0>         0.0843
     38 H7         -1.9238   -0.2981   -0.9298 H         1 <0>         0.0959
     39 H8         -1.0437   -2.2765    2.2541 H         1 <0>         0.0850
     40 H9         -0.4987   -3.6131    1.2081 H         1 <0>         0.0968
     41 H10         1.7137   -3.3731    2.5183 H         1 <0>         0.0763
     42 H11         2.6133   -1.8407    2.4140 H         1 <0>         0.0697
     43 H12         1.1079   -1.9264    3.3599 H         1 <0>         0.0681
     44 H13        -1.8542   -1.7449   -3.2344 H         1 <0>         0.1199
     45 H14         0.3683   -1.4859   -4.3796 H         1 <0>         0.0858
     46 H15         0.5264   -1.4141   -2.6066 H         1 <0>         0.0777
     47 H16         0.9982   -3.8828   -4.3394 H         1 <0>         0.0697
     48 H17         2.2663   -2.8792   -3.5987 H         1 <0>         0.0778
     49 H18         1.8077   -4.8976   -2.2314 H         1 <0>         0.0895
     50 H19         1.3796   -3.4125   -1.3482 H         1 <0>         0.0810
     51 H20        -0.4236   -5.1069   -1.1079 H         1 <0>         0.1364
     52 H21        -0.8523   -3.1255   -5.3203 H         1 <0>         0.0906
     53 H22        -2.7437   -1.0828   -4.6024 H         1 <0>         0.1275
     54 H23        -5.0241   -0.5740   -5.3627 H         1 <0>         0.1322
     55 H24        -5.6529   -4.7154   -6.1881 H         1 <0>         0.1323
     56 H25        -3.7114   -6.1554   -4.5437 H         1 <0>         0.0842
     57 H26        -3.6618   -6.1277   -6.3185 H         1 <0>         0.0934
     58 H27        -1.3453   -5.4768   -6.3265 H         1 <0>         0.0788
     59 H28        -1.4719   -6.8000   -5.1363 H         1 <0>         0.1088
     60 H29        -6.5023   -0.3769   -6.8435 H         1 <0>         0.0567
     61 H30        -8.1844   -0.8971   -6.5822 H         1 <0>         0.1017
     62 H31        -7.1143   -0.6119   -5.1886 H         1 <0>         0.0573
@<TRIPOS>BOND
     1    1    2 1
     2    1   34 1
     3    1   35 1
     4    1   36 1
     5    2    3 1
     6    2    9 1
     7    2    4 1
     8    4    5 1
     9    4   37 1
    10    4   38 1
    11    5    6 1
    12    5   11 1
    13    6    7 1
    14    6   39 1
    15    6   40 1
    16    7    8 1
    17    7    9 1
    18    7   10 1
    19   10   41 1
    20   10   42 1
    21   10   43 1
    22   11   12 2
    23   11   13 2
    24   11   14 1
    25   14   19 1
    26   14   15 1
    27   15   23 1
    28   15   16 1
    29   15   44 1
    30   16   17 1
    31   16   45 1
    32   16   46 1
    33   17   18 1
    34   17   47 1
    35   17   48 1
    36   18   19 1
    37   18   49 1
    38   18   50 1
    39   19   20 1
    40   19   51 1
    41   20   21 2
    42   20   22 am
    43   22   31 1
    44   22   23 1
    45   23   24 1
    46   23   52 1
    47   24   29 ar
    48   24   25 ar
    49   25   26 ar
    50   25   53 1
    51   26   27 ar
    52   26   54 1
    53   27   28 ar
    54   27   32 1
    55   28   29 ar
    56   28   55 1
    57   29   30 1
    58   30   31 1
    59   30   56 1
    60   30   57 1
    61   31   58 1
    62   31   59 1
    63   32   33 1
    64   33   60 1
    65   33   61 1
    66   33   62 1
@<TRIPOS>MOLECULE
CHEMBL56278
   84    86     0     0     0
SMALL
USER_CHARGES

@<TRIPOS>ATOM
      1 C1          1.4343    3.5876   -3.3582 C.3       1 <0>        -0.1483
      2 C2          0.7023    2.3272   -2.8931 C.3       1 <0>        -0.0995
      3 H1          1.2301    1.4449   -3.2550 H         1 <0>         0.1113
      4 C3         -0.7263    2.3316   -3.4456 C.3       1 <0>        -0.1307
      5 C4         -1.4729    1.1059   -2.9103 C.3       1 <0>         0.0643
      6 H2         -0.9893    0.1983   -3.2718 H         1 <0>         0.0751
      7 C5         -1.4419    1.1273   -1.3799 C.3       1 <0>         0.1050
      8 H3         -1.9611    2.0149   -1.0182 H         1 <0>         0.0887
      9 O1         -0.0849    1.1536   -0.9326 O.3       1 <0>        -0.3554
     10 C6          0.6507    2.3007   -1.3632 C.3       1 <0>         0.2713
     11 C7          2.0526    2.2357   -0.8141 C.2       1 <0>         0.3627
     12 O2          2.4289    3.0639   -0.0195 O.2       1 <0>        -0.3835
     13 C8          2.9750    1.1493   -1.2518 C.2       1 <0>         0.4749
     14 O3          2.5650    0.2545   -1.9618 O.2       1 <0>        -0.4612
     15 N1          4.2641    1.1607   -0.8588 N.am      1 <0>        -0.5788
     16 C9          4.7324    2.1267    0.1444 C.3       1 <0>         0.0594
     17 C10         5.4315    1.3643    1.2743 C.3       1 <0>        -0.1376
     18 C11         6.5368    0.4858    0.6838 C.3       1 <0>        -0.1191
     19 C12         5.9216   -0.5333   -0.2780 C.3       1 <0>        -0.1257
     20 C13         5.2266    0.2036   -1.4211 C.3       1 <0>         0.1543
     21 H4          5.9700    0.7378   -2.0128 H         1 <0>         0.1098
     22 C14         4.5014   -0.7893   -2.2925 C.2       1 <0>         0.4636
     23 O4          3.5969   -1.4469   -1.8352 O.2       1 <0>        -0.4582
     24 O5          4.8604   -0.9430   -3.5767 O.3       1 <0>        -0.3516
     25 C15         4.1298   -1.9018   -4.3442 C.3       1 <0>         0.1122
     26 C16         4.6696   -1.9358   -5.7508 C.2       1 <0>        -0.1397
     27 C17         5.6631   -1.1523   -6.0903 C.2       1 <0>        -0.1307
     28 C18         6.2603   -1.2477   -7.4706 C.3       1 <0>        -0.0638
     29 H5          5.6765   -1.9449   -8.0716 H         1 <0>         0.0845
     30 C19         7.7032   -1.7464   -7.3687 C.3       1 <0>        -0.1092
     31 C20         8.3095   -1.8433   -8.7700 C.3       1 <0>        -0.1508
     32 C21         8.2924   -0.4629   -9.4297 C.3       1 <0>         0.0836
     33 H6          8.8761    0.2343   -8.8286 H         1 <0>         0.0625
     34 C22         6.8495    0.0358   -9.5316 C.3       1 <0>         0.0999
     35 H7          6.2657   -0.6614  -10.1327 H         1 <0>         0.0650
     36 C23         6.2432    0.1327   -8.1302 C.3       1 <0>        -0.1049
     37 O6          6.8335    1.3251  -10.1477 O.3       1 <0>        -0.3820
     38 C24         6.7157    1.2875  -11.5713 C.3       1 <0>         0.0308
     39 O7          8.8587   -0.5533  -10.7386 O.3       1 <0>        -0.5649
     40 C25         4.0665   -2.8711   -6.7669 C.3       1 <0>        -0.1169
     41 O8          0.0067    3.4844   -0.8876 O.3       1 <0>        -0.5401
     42 C26        -2.1338   -0.1250   -0.8379 C.3       1 <0>         0.0721
     43 O9         -2.2082   -0.0491    0.5871 O.3       1 <0>        -0.3850
     44 C27        -2.8407   -1.1761    1.1970 C.3       1 <0>         0.0316
     45 O10        -2.8282    1.1373   -3.3622 O.3       1 <0>        -0.3765
     46 C28        -3.0396    0.4775   -4.6120 C.3       1 <0>         0.0290
     47 H8          2.4500    3.5847   -2.9627 H         1 <0>         0.0489
     48 H9          1.4686    3.6068   -4.4475 H         1 <0>         0.0698
     49 H10         0.9058    4.4694   -2.9958 H         1 <0>         0.0749
     50 H11        -1.2384    3.2390   -3.1254 H         1 <0>         0.0884
     51 H12        -0.6962    2.2934   -4.5346 H         1 <0>         0.0791
     52 H13         5.4345    2.8212   -0.3169 H         1 <0>         0.0768
     53 H14         3.8818    2.6770    0.5466 H         1 <0>         0.1442
     54 H15         5.8676    2.0744    1.9769 H         1 <0>         0.0849
     55 H16         4.7065    0.7372    1.7930 H         1 <0>         0.0700
     56 H17         7.2482    1.1109    0.1442 H         1 <0>         0.0712
     57 H18         7.0521   -0.0392    1.4881 H         1 <0>         0.0773
     58 H19         6.7065   -1.1738   -0.6803 H         1 <0>         0.0866
     59 H20         5.1919   -1.1426    0.2553 H         1 <0>         0.0821
     60 H21         4.2357   -2.8872   -3.8905 H         1 <0>         0.0758
     61 H22         3.0763   -1.6231   -4.3660 H         1 <0>         0.0791
     62 H23         6.0542   -0.4380   -5.3809 H         1 <0>         0.1221
     63 H24         8.2869   -1.0492   -6.7676 H         1 <0>         0.0685
     64 H25         7.7153   -2.7298   -6.8987 H         1 <0>         0.0701
     65 H26         9.3374   -2.1985   -8.6974 H         1 <0>         0.0704
     66 H27         7.7257   -2.5404   -9.3711 H         1 <0>         0.0713
     67 H28         5.2153    0.4880   -8.2028 H         1 <0>         0.0767
     68 H29         6.8270    0.8299   -7.5292 H         1 <0>         0.0752
     69 H30         5.7864    0.7883  -11.8460 H         1 <0>         0.0357
     70 H31         6.7109    2.3049  -11.9625 H         1 <0>         0.0809
     71 H32         7.5598    0.7407  -11.9915 H         1 <0>         0.0599
     72 H33         9.7744   -0.8639  -10.7503 H         1 <0>         0.3773
     73 H34         3.3207   -2.3364   -7.3553 H         1 <0>         0.0714
     74 H35         4.8497   -3.2451   -7.4264 H         1 <0>         0.0746
     75 H36         3.5928   -3.7082   -6.2541 H         1 <0>         0.0638
     76 H37        -0.0613    3.5351    0.0757 H         1 <0>         0.3915
     77 H38        -3.1402   -0.1916   -1.2512 H         1 <0>         0.0767
     78 H39        -1.5637   -1.0084   -1.1255 H         1 <0>         0.0575
     79 H40        -2.8576   -1.0420    2.2786 H         1 <0>         0.0874
     80 H41        -3.8618   -1.2646    0.8259 H         1 <0>         0.0422
     81 H42        -2.2852   -2.0813    0.9517 H         1 <0>         0.0419
     82 H43        -2.4328    0.9543   -5.3818 H         1 <0>         0.0441
     83 H44        -2.7547   -0.5708   -4.5223 H         1 <0>         0.0439
     84 H45        -4.0926    0.5457   -4.8853 H         1 <0>         0.0904
@<TRIPOS>BOND
     1    1    2 1
     2    1   47 1
     3    1   48 1
     4    1   49 1
     5    2    3 1
     6    2   10 1
     7    2    4 1
     8    4    5 1
     9    4   50 1
    10    4   51 1
    11    5    6 1
    12    5    7 1
    13    5   45 1
    14    7    8 1
    15    7    9 1
    16    7   42 1
    17    9   10 1
    18   10   11 1
    19   10   41 1
    20   11   12 2
    21   11   13 1
    22   13   14 2
    23   13   15 am
    24   15   20 1
    25   15   16 1
    26   16   17 1
    27   16   52 1
    28   16   53 1
    29   17   18 1
    30   17   54 1
    31   17   55 1
    32   18   19 1
    33   18   56 1
    34   18   57 1
    35   19   20 1
    36   19   58 1
    37   19   59 1
    38   20   21 1
    39   20   22 1
    40   22   23 2
    41   22   24 1
    42   24   25 1
    43   25   26 1
    44   25   60 1
    45   25   61 1
    46   26   27 2
    47   26   40 1
    48   27   28 1
    49   27   62 1
    50   28   29 1
    51   28   36 1
    52   28   30 1
    53   30   31 1
    54   30   63 1
    55   30   64 1
    56   31   32 1
    57   31   65 1
    58   31   66 1
    59   32   33 1
    60   32   34 1
    61   32   39 1
    62   34   35 1
    63   34   36 1
    64   34   37 1
    65   36   67 1
    66   36   68 1
    67   37   38 1
    68   38   69 1
    69   38   70 1
    70   38   71 1
    71   39   72 1
    72   40   73 1
    73   40   74 1
    74   40   75 1
    75   41   76 1
    76   42   43 1
    77   42   77 1
    78   42   78 1
    79   43   44 1
    80   44   79 1
    81   44   80 1
    82   44   81 1
    83   45   46 1
    84   46   82 1
    85   46   83 1
    86   46   84 1
@<TRIPOS>MOLECULE
CHEMBL33094
   56    57     0     0     0
SMALL
USER_CHARGES

@<TRIPOS>ATOM
      1 C1         -0.0187    1.5258    0.0104 C.3       1 <0>        -0.1555
      2 C2          0.0021   -0.0041    0.0020 C.3       1 <0>        -0.1076
      3 C3          0.7182   -0.4975   -1.2568 C.3       1 <0>        -0.0879
      4 C4         -0.0218    0.0093   -2.4963 C.3       1 <0>        -0.1454
      5 C5          2.1536    0.0321   -1.2676 C.3       1 <0>        -0.1457
      6 C6          0.7386   -2.0043   -1.2651 C.2       1 <0>         0.3677
      7 O1          0.2326   -2.6202   -0.3576 O.2       1 <0>        -0.4157
      8 C7          1.3836   -2.7349   -2.3934 C.2       1 <0>         0.4993
      9 O2          1.8921   -2.1161   -3.3052 O.2       1 <0>        -0.4884
     10 N1          1.4018   -4.0825   -2.4008 N.am      1 <0>        -0.5839
     11 C8          0.8189   -4.9554   -1.3656 C.3       1 <0>         0.0952
     12 C9          0.5402   -6.2967   -2.0888 C.3       1 <0>        -0.1359
     13 C10         1.7600   -6.3955   -3.0427 C.3       1 <0>        -0.1247
     14 C11         2.0009   -4.9256   -3.4458 C.3       1 <0>         0.1147
     15 H1          3.0715   -4.7316   -3.5101 H         1 <0>         0.1065
     16 C12         1.3449   -4.6411   -4.7724 C.2       1 <0>         0.5081
     17 O3          0.4606   -3.8145   -4.8467 O.2       1 <0>        -0.5154
     18 N2          1.7410   -5.3054   -5.8762 N.am      1 <0>        -0.7312
     19 C13         1.1034   -5.0288   -7.1658 C.3       1 <0>         0.1203
     20 C14         1.7334   -5.9107   -8.2457 C.3       1 <0>        -0.1244
     21 C15         1.0674   -5.6219   -9.5926 C.3       1 <0>        -0.0781
     22 C16         1.6880   -6.4904  -10.6563 C.ar      1 <0>        -0.0833
     23 C17         2.7895   -6.0407  -11.3601 C.ar      1 <0>        -0.1173
     24 C18         3.3588   -6.8374  -12.3359 C.ar      1 <0>        -0.1179
     25 C19         2.8268   -8.0841  -12.6075 C.ar      1 <0>        -0.1240
     26 C20         1.7259   -8.5342  -11.9031 C.ar      1 <0>        -0.1181
     27 C21         1.1593   -7.7392  -10.9244 C.ar      1 <0>        -0.1175
     28 H2          1.0039    1.9031    0.0027 H         1 <0>         0.0598
     29 H3         -0.5459    1.8868   -0.8726 H         1 <0>         0.0601
     30 H4         -0.5289    1.8773    0.9072 H         1 <0>         0.0578
     31 H5          0.5293   -0.3651    0.8851 H         1 <0>         0.0683
     32 H6         -1.0205   -0.3814    0.0098 H         1 <0>         0.0684
     33 H7         -0.0366    1.0992   -2.4903 H         1 <0>         0.0738
     34 H8          0.4884   -0.3422   -3.3931 H         1 <0>         0.0796
     35 H9         -1.0444   -0.3679   -2.4886 H         1 <0>         0.0556
     36 H10         2.6808   -0.3290   -0.3846 H         1 <0>         0.0556
     37 H11         2.6638   -0.3194   -2.1644 H         1 <0>         0.0777
     38 H12         2.1388    1.1220   -1.2617 H         1 <0>         0.0750
     39 H13         1.5279   -5.1037   -0.5511 H         1 <0>         0.0782
     40 H14        -0.1100   -4.5279   -0.9880 H         1 <0>         0.0980
     41 H15         0.5286   -7.1265   -1.3821 H         1 <0>         0.0940
     42 H16        -0.3926   -6.2511   -2.6508 H         1 <0>         0.0789
     43 H17         2.6258   -6.8030   -2.5206 H         1 <0>         0.0936
     44 H18         1.5172   -6.9982   -3.9179 H         1 <0>         0.0893
     45 H19         2.4483   -5.9665   -5.8167 H         1 <0>         0.4002
     46 H20         0.0370   -5.2441   -7.0974 H         1 <0>         0.0681
     47 H21         1.2464   -3.9797   -7.4243 H         1 <0>         0.0692
     48 H22         2.7998   -5.6954   -8.3141 H         1 <0>         0.0719
     49 H23         1.5904   -6.9599   -7.9872 H         1 <0>         0.0715
     50 H24         0.0011   -5.8371   -9.5242 H         1 <0>         0.0765
     51 H25         1.2105   -4.5727   -9.8511 H         1 <0>         0.0769
     52 H26         3.2051   -5.0667  -11.1479 H         1 <0>         0.1214
     53 H27         4.2189   -6.4857  -12.8862 H         1 <0>         0.1220
     54 H28         3.2711   -8.7062  -13.3703 H         1 <0>         0.1213
     55 H29         1.3101   -9.5080  -12.1155 H         1 <0>         0.1219
     56 H30         0.3014   -8.0924  -10.3714 H         1 <0>         0.1211
@<TRIPOS>BOND
     1    1    2 1
     2    1   28 1
     3    1   29 1
     4    1   30 1
     5    2    3 1
     6    2   31 1
     7    2   32 1
     8    3    4 1
     9    3    5 1
    10    3    6 1
    11    4   33 1
    12    4   34 1
    13    4   35 1
    14    5   36 1
    15    5   37 1
    16    5   38 1
    17    6    7 2
    18    6    8 1
    19    8    9 2
    20    8   10 am
    21   10   14 1
    22   10   11 1
    23   11   12 1
    24   11   39 1
    25   11   40 1
    26   12   13 1
    27   12   41 1
    28   12   42 1
    29   13   14 1
    30   13   43 1
    31   13   44 1
    32   14   15 1
    33   14   16 1
    34   16   17 2
    35   16   18 am
    36   18   19 1
    37   18   45 1
    38   19   20 1
    39   19   46 1
    40   19   47 1
    41   20   21 1
    42   20   48 1
    43   20   49 1
    44   21   22 1
    45   21   50 1
    46   21   51 1
    47   22   27 ar
    48   22   23 ar
    49   23   24 ar
    50   23   52 1
    51   24   25 ar
    52   24   53 1
    53   25   26 ar
    54   25   54 1
    55   26   27 ar
    56   26   55 1
    57   27   56 1
@<TRIPOS>MOLECULE
CHEMBL126088
   69    72     0     0     0
SMALL
USER_CHARGES

@<TRIPOS>ATOM
      1 C1          1.7968    2.9831    1.8255 C.3       1 <0>        -0.1553
      2 C2          1.2453    1.5830    1.5495 C.3       1 <0>        -0.1060
      3 C3          1.5372    1.1968    0.0981 C.3       1 <0>        -0.0872
      4 C4          0.8690    2.2025   -0.8415 C.3       1 <0>        -0.1462
      5 C5          3.0489    1.2051   -0.1376 C.3       1 <0>        -0.1449
      6 C6          0.9940   -0.1823   -0.1738 C.2       1 <0>         0.3640
      7 O1          0.4313   -0.7934    0.7030 O.2       1 <0>        -0.4153
      8 C7          1.1511   -0.7924   -1.5250 C.2       1 <0>         0.4999
      9 O2          1.7166   -0.1784   -2.4060 O.2       1 <0>        -0.4989
     10 N1          0.6653   -2.0258   -1.7682 N.am      1 <0>        -0.5812
     11 C8         -0.0495   -2.8969   -0.8120 C.3       1 <0>         0.1145
     12 H1         -0.9589   -2.4083   -0.4625 H         1 <0>         0.1128
     13 C9         -0.4030   -4.1863   -1.6165 C.3       1 <0>        -0.0971
     14 C10         0.9748   -4.8894   -1.8248 C.3       1 <0>        -0.1288
     15 C11         1.7444   -3.9390   -2.7717 C.3       1 <0>        -0.1352
     16 C12         0.7389   -2.7739   -3.0562 C.3       1 <0>         0.1248
     17 C13        -0.6191   -3.5522   -3.0380 C.3       1 <0>        -0.1318
     18 C14         0.8426   -3.2347    0.3547 C.2       1 <0>         0.3171
     19 O3          2.0443   -3.0971    0.2593 O.2       1 <0>        -0.4564
     20 S1          0.1812   -3.7951    1.7703 S.3       1 <0>        -0.0843
     21 C15         1.6144   -4.0558    2.8514 C.3       1 <0>        -0.0961
     22 C16         1.1408   -4.5792    4.2088 C.3       1 <0>        -0.0934
     23 C17         2.3496   -4.7991    5.1206 C.3       1 <0>        -0.0013
     24 C18         1.8763   -5.1967    6.4950 C.ar      1 <0>        -0.0729
     25 C19         2.3251   -4.5082    7.6065 C.ar      1 <0>        -0.1129
     26 C20         1.8910   -4.8730    8.8673 C.ar      1 <0>        -0.1171
     27 C21         1.0078   -5.9259    9.0164 C.ar      1 <0>        -0.1210
     28 C22         0.5584   -6.6138    7.9048 C.ar      1 <0>        -0.1171
     29 C23         0.9891   -6.2463    6.6437 C.ar      1 <0>        -0.1129
     30 C24         3.2157   -5.8932    4.5515 C.ar      1 <0>        -0.0743
     31 C25         2.6574   -7.1123    4.2154 C.ar      1 <0>        -0.1140
     32 C26         3.4518   -8.1159    3.6933 C.ar      1 <0>        -0.1169
     33 C27         4.8045   -7.9003    3.5070 C.ar      1 <0>        -0.1216
     34 C28         5.3626   -6.6808    3.8423 C.ar      1 <0>        -0.1164
     35 C29         4.5674   -5.6758    4.3603 C.ar      1 <0>        -0.1140
     36 H2          2.8738    2.9890    1.6576 H         1 <0>         0.0595
     37 H3          1.3208    3.6996    1.1561 H         1 <0>         0.0603
     38 H4          1.5888    3.2582    2.8595 H         1 <0>         0.0582
     39 H5          1.7213    0.8665    2.2189 H         1 <0>         0.0666
     40 H6          0.1683    1.5771    1.7175 H         1 <0>         0.0691
     41 H7          1.2619    3.2001   -0.6449 H         1 <0>         0.0757
     42 H8          1.0770    1.9274   -1.8755 H         1 <0>         0.0777
     43 H9         -0.2080    2.1966   -0.6736 H         1 <0>         0.0562
     44 H10         3.5250    0.4886    0.5318 H         1 <0>         0.0548
     45 H11         3.2569    0.9300   -1.1716 H         1 <0>         0.0772
     46 H12         3.4419    2.2026    0.0590 H         1 <0>         0.0752
     47 H13        -1.2159   -4.7965   -1.2229 H         1 <0>         0.1318
     48 H14         1.4999   -4.9892   -0.8749 H         1 <0>         0.0678
     49 H15         0.8388   -5.8651   -2.2913 H         1 <0>         0.0788
     50 H16         2.6415   -3.5590   -2.2828 H         1 <0>         0.0763
     51 H17         2.0032   -4.4521   -3.6980 H         1 <0>         0.0800
     52 H18         0.9438   -2.1719   -3.9416 H         1 <0>         0.1288
     53 H19        -0.6727   -4.3075   -3.8221 H         1 <0>         0.0992
     54 H20        -1.4761   -2.8791   -3.0627 H         1 <0>         0.0838
     55 H21         2.2858   -4.7834    2.3955 H         1 <0>         0.0964
     56 H22         2.1415   -3.1118    2.9898 H         1 <0>         0.0934
     57 H23         0.4694   -3.8516    4.6647 H         1 <0>         0.0837
     58 H24         0.6136   -5.5232    4.0704 H         1 <0>         0.0806
     59 H25         2.9266   -3.8768    5.1877 H         1 <0>         0.0896
     60 H26         3.0151   -3.6856    7.4900 H         1 <0>         0.1212
     61 H27         2.2422   -4.3355    9.7357 H         1 <0>         0.1224
     62 H28         0.6692   -6.2113   10.0015 H         1 <0>         0.1215
     63 H29        -0.1314   -7.4366    8.0214 H         1 <0>         0.1223
     64 H30         0.6351   -6.7814    5.7750 H         1 <0>         0.1219
     65 H31         1.6006   -7.2808    4.3609 H         1 <0>         0.1223
     66 H32         3.0158   -9.0686    3.4314 H         1 <0>         0.1221
     67 H33         5.4253   -8.6846    3.0998 H         1 <0>         0.1211
     68 H34         6.4194   -6.5125    3.6970 H         1 <0>         0.1217
     69 H35         5.0027   -4.7218    4.6188 H         1 <0>         0.1204
@<TRIPOS>BOND
     1    1    2 1
     2    1   36 1
     3    1   37 1
     4    1   38 1
     5    2    3 1
     6    2   39 1
     7    2   40 1
     8    3    4 1
     9    3    5 1
    10    3    6 1
    11    4   41 1
    12    4   42 1
    13    4   43 1
    14    5   44 1
    15    5   45 1
    16    5   46 1
    17    6    7 2
    18    6    8 1
    19    8    9 2
    20    8   10 am
    21   10   16 1
    22   10   11 1
    23   11   12 1
    24   11   13 1
    25   11   18 1
    26   13   17 1
    27   13   14 1
    28   13   47 1
    29   14   15 1
    30   14   48 1
    31   14   49 1
    32   15   16 1
    33   15   50 1
    34   15   51 1
    35   16   17 1
    36   16   52 1
    37   17   53 1
    38   17   54 1
    39   18   19 2
    40   18   20 1
    41   20   21 1
    42   21   22 1
    43   21   55 1
    44   21   56 1
    45   22   23 1
    46   22   57 1
    47   22   58 1
    48   23   24 1
    49   23   30 1
    50   23   59 1
    51   24   29 ar
    52   24   25 ar
    53   25   26 ar
    54   25   60 1
    55   26   27 ar
    56   26   61 1
    57   27   28 ar
    58   27   62 1
    59   28   29 ar
    60   28   63 1
    61   29   64 1
    62   30   35 ar
    63   30   31 ar
    64   31   32 ar
    65   31   65 1
    66   32   33 ar
    67   32   66 1
    68   33   34 ar
    69   33   67 1
    70   34   35 ar
    71   34   68 1
    72   35   69 1
@<TRIPOS>MOLECULE
CHEMBL126088__1
   69    72     0     0     0
SMALL
USER_CHARGES

@<TRIPOS>ATOM
      1 C1          1.7318    2.9653    1.8012 C.3       1 <0>        -0.1552
      2 C2          1.1825    1.5651    1.5208 C.3       1 <0>        -0.1060
      3 C3          1.4757    1.1836    0.0685 C.3       1 <0>        -0.0871
      4 C4          0.8064    2.1911   -0.8685 C.3       1 <0>        -0.1462
      5 C5          2.9875    1.1948   -0.1665 C.3       1 <0>        -0.1450
      6 C6          0.9346   -0.1956   -0.2077 C.2       1 <0>         0.3646
      7 O1          0.3723   -0.8100    0.6671 O.2       1 <0>        -0.4153
      8 C7          1.0933   -0.8015   -1.5606 C.2       1 <0>         0.5003
      9 O2          1.6582   -0.1840   -2.4396 O.2       1 <0>        -0.4987
     10 N1          0.6093   -2.0349   -1.8076 N.am      1 <0>        -0.5814
     11 C8         -0.1046   -2.9098   -0.8542 C.3       1 <0>         0.1169
     12 H1         -1.0308   -2.4369   -0.5280 H         1 <0>         0.1145
     13 C9         -0.4149   -4.2161   -1.6493 C.3       1 <0>        -0.0987
     14 C10        -1.5114   -3.7826   -2.6720 C.3       1 <0>        -0.1192
     15 C11        -0.7754   -2.8133   -3.6265 C.3       1 <0>        -0.1383
     16 C12         0.6847   -2.7791   -3.0978 C.3       1 <0>         0.1272
     17 C13         0.8484   -4.2560   -2.5830 C.3       1 <0>        -0.1383
     18 C14         0.7722   -3.2142    0.3330 C.2       1 <0>         0.3121
     19 O3          1.9723   -3.0517    0.2585 O.2       1 <0>        -0.4583
     20 S1          0.0962   -3.7718    1.7428 S.3       1 <0>        -0.0837
     21 C15         1.5138   -3.9884    2.8537 C.3       1 <0>        -0.0961
     22 C16         1.0258   -4.5057    4.2084 C.3       1 <0>        -0.0934
     23 C17         2.2215   -4.6884    5.1453 C.3       1 <0>        -0.0014
     24 C18         1.7308   -5.0797    6.5154 C.ar      1 <0>        -0.0728
     25 C19         2.1434   -4.3684    7.6266 C.ar      1 <0>        -0.1129
     26 C20         1.6934   -4.7274    8.8834 C.ar      1 <0>        -0.1171
     27 C21         0.8304   -5.7974    9.0289 C.ar      1 <0>        -0.1211
     28 C22         0.4170   -6.5081    7.9177 C.ar      1 <0>        -0.1171
     29 C23         0.8637   -6.1465    6.6605 C.ar      1 <0>        -0.1129
     30 C24         3.1215   -5.7701    4.6062 C.ar      1 <0>        -0.0743
     31 C25         2.5961   -7.0050    4.2747 C.ar      1 <0>        -0.1141
     32 C26         3.4217   -7.9973    3.7801 C.ar      1 <0>        -0.1169
     33 C27         4.7727   -7.7546    3.6166 C.ar      1 <0>        -0.1216
     34 C28         5.2980   -6.5194    3.9471 C.ar      1 <0>        -0.1165
     35 C29         4.4716   -5.5257    4.4377 C.ar      1 <0>        -0.1140
     36 H2          2.8089    2.9732    1.6338 H         1 <0>         0.0595
     37 H3          1.2550    3.6830    1.1337 H         1 <0>         0.0602
     38 H4          1.5229    3.2371    2.8359 H         1 <0>         0.0582
     39 H5          1.6592    0.8473    2.1884 H         1 <0>         0.0666
     40 H6          0.1054    1.5571    1.6883 H         1 <0>         0.0690
     41 H7          1.1978    3.1886   -0.6688 H         1 <0>         0.0758
     42 H8          1.0153    1.9193   -1.9032 H         1 <0>         0.0777
     43 H9         -0.2706    2.1831   -0.7011 H         1 <0>         0.0560
     44 H10         3.4643    0.4770    0.5010 H         1 <0>         0.0551
     45 H11         3.1964    0.9230   -1.2012 H         1 <0>         0.0772
     46 H12         3.3788    2.1923    0.0332 H         1 <0>         0.0752
     47 H13        -0.6154   -5.1089   -1.0569 H         1 <0>         0.1282
     48 H14        -1.8854   -4.6473   -3.2201 H         1 <0>         0.0812
     49 H15        -2.3274   -3.2702   -2.1624 H         1 <0>         0.0737
     50 H16        -0.8022   -3.1920   -4.6483 H         1 <0>         0.0843
     51 H17        -1.2198   -1.8193   -3.5763 H         1 <0>         0.0729
     52 H18         1.4320   -2.4222   -3.8065 H         1 <0>         0.1267
     53 H19         1.7713   -4.4000   -2.0212 H         1 <0>         0.0818
     54 H20         0.7437   -4.9851   -3.3866 H         1 <0>         0.0976
     55 H21         2.2092   -4.7067    2.4195 H         1 <0>         0.0966
     56 H22         2.0178   -3.0316    2.9903 H         1 <0>         0.0934
     57 H23         0.3304   -3.7874    4.6426 H         1 <0>         0.0837
     58 H24         0.5218   -5.4625    4.0718 H         1 <0>         0.0806
     59 H25         2.7771   -3.7530    5.2119 H         1 <0>         0.0897
     60 H26         2.8177   -3.5325    7.5129 H         1 <0>         0.1212
     61 H27         2.0163   -4.1721    9.7516 H         1 <0>         0.1224
     62 H28         0.4793   -6.0783   10.0109 H         1 <0>         0.1215
     63 H29        -0.2570   -7.3443    8.0314 H         1 <0>         0.1223
     64 H30         0.5378   -6.6994    5.7919 H         1 <0>         0.1219
     65 H31         1.5406   -7.1947    4.4025 H         1 <0>         0.1223
     66 H32         3.0113   -8.9623    3.5218 H         1 <0>         0.1221
     67 H33         5.4179   -8.5300    3.2308 H         1 <0>         0.1211
     68 H34         6.3536   -6.3298    3.8197 H         1 <0>         0.1217
     69 H35         4.8814   -4.5595    4.6925 H         1 <0>         0.1204
@<TRIPOS>BOND
     1    1    2 1
     2    1   36 1
     3    1   37 1
     4    1   38 1
     5    2    3 1
     6    2   39 1
     7    2   40 1
     8    3    4 1
     9    3    5 1
    10    3    6 1
    11    4   41 1
    12    4   42 1
    13    4   43 1
    14    5   44 1
    15    5   45 1
    16    5   46 1
    17    6    7 2
    18    6    8 1
    19    8    9 2
    20    8   10 am
    21   10   16 1
    22   10   11 1
    23   11   12 1
    24   11   13 1
    25   11   18 1
    26   13   17 1
    27   13   14 1
    28   13   47 1
    29   14   15 1
    30   14   48 1
    31   14   49 1
    32   15   16 1
    33   15   50 1
    34   15   51 1
    35   16   17 1
    36   16   52 1
    37   17   53 1
    38   17   54 1
    39   18   19 2
    40   18   20 1
    41   20   21 1
    42   21   22 1
    43   21   55 1
    44   21   56 1
    45   22   23 1
    46   22   57 1
    47   22   58 1
    48   23   24 1
    49   23   30 1
    50   23   59 1
    51   24   29 ar
    52   24   25 ar
    53   25   26 ar
    54   25   60 1
    55   26   27 ar
    56   26   61 1
    57   27   28 ar
    58   27   62 1
    59   28   29 ar
    60   28   63 1
    61   29   64 1
    62   30   35 ar
    63   30   31 ar
    64   31   32 ar
    65   31   65 1
    66   32   33 ar
    67   32   66 1
    68   33   34 ar
    69   33   67 1
    70   34   35 ar
    71   34   68 1
    72   35   69 1
@<TRIPOS>MOLECULE
CHEMBL343212
   57    58     0     0     0
SMALL
USER_CHARGES

@<TRIPOS>ATOM
      1 C1          3.2636    0.7684    1.8318 C.3       1 <0>        -0.1536
      2 C2          2.7900   -0.6571    1.5410 C.3       1 <0>        -0.1173
      3 C3          3.0482   -0.9903    0.0702 C.3       1 <0>        -0.1038
      4 C4          2.1864   -0.0888   -0.8159 C.3       1 <0>        -0.1496
      5 C5          2.6906   -2.4548   -0.1913 C.3       1 <0>         0.1422
      6 N1          3.0493   -2.8068   -1.5674 N.am      1 <0>        -0.7423
      7 C6          2.8239   -4.0545   -2.0244 C.2       1 <0>         0.7030
      8 O1          2.4099   -4.9129   -1.2694 O.2       1 <0>        -0.5605
      9 N2          3.0574   -4.3506   -3.3184 N.am      1 <0>        -0.6246
     10 C7          3.6761   -3.3626   -4.2126 C.3       1 <0>         0.1159
     11 C8          2.7852   -3.1883   -5.4466 C.3       1 <0>        -0.1393
     12 C9          2.5415   -4.5545   -6.0919 C.3       1 <0>        -0.1167
     13 C10         1.8186   -5.4678   -5.0993 C.3       1 <0>        -0.1256
     14 C11         2.7036   -5.6698   -3.8600 C.3       1 <0>         0.1769
     15 C12         1.9483   -6.4569   -2.8202 C.2       1 <0>         0.4705
     16 O2          0.9957   -5.9642   -2.2637 O.2       1 <0>        -0.4675
     17 O3          2.3338   -7.7052   -2.5124 O.3       1 <0>        -0.3560
     18 C13         1.5720   -8.3927   -1.5178 C.3       1 <0>         0.0733
     19 C14         2.1569   -9.7901   -1.3031 C.3       1 <0>        -0.1125
     20 C15         1.3414  -10.5262   -0.2382 C.3       1 <0>        -0.0737
     21 C16         1.9174  -11.9026   -0.0267 C.ar      1 <0>        -0.1330
     22 C17         1.4692  -12.9751   -0.7829 C.ar      1 <0>        -0.0726
     23 C18         2.0277  -14.2231   -0.5539 C.ar      1 <0>        -0.1701
     24 C19         3.0059  -14.3560    0.4137 C.ar      1 <0>         0.0936
     25 N3          3.4075  -13.3136    1.1143 N.ar      1 <0>        -0.4833
     26 C20         2.9029  -12.1108    0.9192 C.ar      1 <0>         0.1024
     27 H1          4.3307    0.8462    1.6236 H         1 <0>         0.0540
     28 H2          2.7179    1.4686    1.1993 H         1 <0>         0.0573
     29 H3          3.0796    1.0057    2.8796 H         1 <0>         0.0560
     30 H4          3.3356   -1.3574    2.1734 H         1 <0>         0.0657
     31 H5          1.7229   -0.7350    1.7492 H         1 <0>         0.0661
     32 H6          4.1010   -0.8267   -0.1599 H         1 <0>         0.0763
     33 H7          1.1336   -0.2524   -0.5857 H         1 <0>         0.0581
     34 H8          2.4411    0.9545   -0.6296 H         1 <0>         0.0617
     35 H9          2.3704   -0.3262   -1.8637 H         1 <0>         0.0512
     36 H10         3.2397   -3.0922    0.5017 H         1 <0>         0.0664
     37 H11         1.6199   -2.5987   -0.0468 H         1 <0>         0.0665
     38 H12         3.4490   -2.1418   -2.1497 H         1 <0>         0.3938
     39 H13         3.7716   -2.4090   -3.6933 H         1 <0>         0.0810
     40 H14         4.6611   -3.7140   -4.5197 H         1 <0>         0.0764
     41 H15         1.8321   -2.7516   -5.1485 H         1 <0>         0.0708
     42 H16         3.2792   -2.5309   -6.1621 H         1 <0>         0.0818
     43 H17         1.9281   -4.4303   -6.9843 H         1 <0>         0.0759
     44 H18         3.4967   -5.0015   -6.3674 H         1 <0>         0.0711
     45 H19         0.8745   -5.0096   -4.8044 H         1 <0>         0.0794
     46 H20         1.6246   -6.4328   -5.5676 H         1 <0>         0.0848
     47 H21         3.6110   -6.2056   -4.1390 H         1 <0>         0.1026
     48 H22         1.6095   -7.8354   -0.5818 H         1 <0>         0.0712
     49 H23         0.5369   -8.4789   -1.8482 H         1 <0>         0.0640
     50 H24         2.1194  -10.3474   -2.2391 H         1 <0>         0.0743
     51 H25         3.1921   -9.7039   -0.9728 H         1 <0>         0.0761
     52 H26         1.3788   -9.9689    0.6978 H         1 <0>         0.0815
     53 H27         0.3062  -10.6124   -0.5686 H         1 <0>         0.0792
     54 H28         0.7030  -12.8414   -1.5322 H         1 <0>         0.1343
     55 H29         1.7024  -15.0807   -1.1241 H         1 <0>         0.1358
     56 H30         3.4460  -15.3248    0.5982 H         1 <0>         0.1558
     57 H31         3.2609  -11.2798    1.5089 H         1 <0>         0.1548
@<TRIPOS>BOND
     1    1    2 1
     2    1   27 1
     3    1   28 1
     4    1   29 1
     5    2    3 1
     6    2   30 1
     7    2   31 1
     8    3    4 1
     9    3    5 1
    10    3   32 1
    11    4   33 1
    12    4   34 1
    13    4   35 1
    14    5    6 1
    15    5   36 1
    16    5   37 1
    17    6    7 am
    18    6   38 1
    19    7    8 2
    20    7    9 am
    21    9   14 1
    22    9   10 1
    23   10   11 1
    24   10   39 1
    25   10   40 1
    26   11   12 1
    27   11   41 1
    28   11   42 1
    29   12   13 1
    30   12   43 1
    31   12   44 1
    32   13   14 1
    33   13   45 1
    34   13   46 1
    35   14   15 1
    36   14   47 1
    37   15   16 2
    38   15   17 1
    39   17   18 1
    40   18   19 1
    41   18   48 1
    42   18   49 1
    43   19   20 1
    44   19   50 1
    45   19   51 1
    46   20   21 1
    47   20   52 1
    48   20   53 1
    49   21   26 ar
    50   21   22 ar
    51   22   23 ar
    52   22   54 1
    53   23   24 ar
    54   23   55 1
    55   24   25 ar
    56   24   56 1
    57   25   26 ar
    58   26   57 1
@<TRIPOS>MOLECULE
CHEMBL343212__1
   57    58     0     0     0
SMALL
USER_CHARGES

@<TRIPOS>ATOM
      1 C1         -4.3156   -0.7324   -3.1378 C.3       1 <0>        -0.1537
      2 C2         -3.5801   -1.9990   -2.6954 C.3       1 <0>        -0.1172
      3 C3         -2.2965   -2.1553   -3.5133 C.3       1 <0>        -0.1041
      4 C4         -2.6532   -2.3868   -4.9830 C.3       1 <0>        -0.1496
      5 C5         -1.4992   -3.3507   -2.9876 C.3       1 <0>         0.1423
      6 N1         -0.2161   -3.4289   -3.6902 N.am      1 <0>        -0.7427
      7 C6          0.6579   -4.4100   -3.3901 C.2       1 <0>         0.6993
      8 O1          0.4216   -5.1759   -2.4757 O.2       1 <0>        -0.5591
      9 N2          1.7936   -4.5423   -4.1036 N.am      1 <0>        -0.6234
     10 C7          2.1482   -3.5585   -5.1356 C.3       1 <0>         0.1158
     11 C8          3.5615   -3.0380   -4.8558 C.3       1 <0>        -0.1395
     12 C9          4.5266   -4.2216   -4.7577 C.3       1 <0>        -0.1163
     13 C10         4.1077   -5.1289   -3.5986 C.3       1 <0>        -0.1279
     14 C11         2.7036   -5.6698   -3.8600 C.3       1 <0>         0.1786
     15 C12         2.2328   -6.4487   -2.6589 C.2       1 <0>         0.4649
     16 O2          2.0494   -5.8839   -1.6066 O.2       1 <0>        -0.4569
     17 O3          2.0172   -7.7698   -2.7580 O.3       1 <0>        -0.3575
     18 C13         1.5717   -8.4447   -1.5798 C.3       1 <0>         0.0732
     19 C14         1.3818   -9.9319   -1.8849 C.3       1 <0>        -0.1124
     20 C15         0.9049  -10.6544   -0.6234 C.3       1 <0>        -0.0738
     21 C16         0.7178  -12.1193   -0.9239 C.ar      1 <0>        -0.1330
     22 C17        -0.5036  -12.5922   -1.3793 C.ar      1 <0>        -0.0725
     23 C18        -0.6298  -13.9473   -1.6427 C.ar      1 <0>        -0.1698
     24 C19         0.4584  -14.7762   -1.4441 C.ar      1 <0>         0.0936
     25 N3          1.6050  -14.2915   -1.0094 N.ar      1 <0>        -0.4833
     26 C20         1.7629  -13.0072   -0.7545 C.ar      1 <0>         0.1021
     27 H1         -3.6747    0.1346   -2.9774 H         1 <0>         0.0541
     28 H2         -4.5659   -0.8084   -4.1959 H         1 <0>         0.0573
     29 H3         -5.2300   -0.6210   -2.5551 H         1 <0>         0.0560
     30 H4         -3.3297   -1.9230   -1.6373 H         1 <0>         0.0658
     31 H5         -4.2209   -2.8660   -2.8558 H         1 <0>         0.0659
     32 H6         -1.6959   -1.2502   -3.4234 H         1 <0>         0.0764
     33 H7         -3.2538   -3.2919   -5.0729 H         1 <0>         0.0579
     34 H8         -3.2212   -1.5352   -5.3575 H         1 <0>         0.0618
     35 H9         -1.7387   -2.4981   -5.5656 H         1 <0>         0.0516
     36 H10        -1.3216   -3.2274   -1.9193 H         1 <0>         0.0671
     37 H11        -2.0636   -4.2674   -3.1587 H         1 <0>         0.0653
     38 H12         0.0046   -2.7745   -4.3714 H         1 <0>         0.3933
     39 H13         2.1210   -4.0324   -6.1169 H         1 <0>         0.0763
     40 H14         1.4413   -2.7293   -5.1083 H         1 <0>         0.0808
     41 H15         3.8740   -2.3799   -5.6666 H         1 <0>         0.0820
     42 H16         3.5663   -2.4858   -3.9160 H         1 <0>         0.0707
     43 H17         4.5029   -4.7877   -5.6888 H         1 <0>         0.0710
     44 H18         5.5373   -3.8526   -4.5830 H         1 <0>         0.0761
     45 H19         4.8091   -5.9591   -3.5146 H         1 <0>         0.0853
     46 H20         4.1074   -4.5570   -2.6707 H         1 <0>         0.0800
     47 H21         2.7227   -6.3196   -4.7349 H         1 <0>         0.1019
     48 H22         2.3149   -8.3276   -0.7911 H         1 <0>         0.0649
     49 H23         0.6240   -8.0170   -1.2525 H         1 <0>         0.0700
     50 H24         0.6387  -10.0490   -2.6736 H         1 <0>         0.0743
     51 H25         2.3295  -10.3595   -2.2122 H         1 <0>         0.0758
     52 H26         1.6480  -10.5373    0.1654 H         1 <0>         0.0812
     53 H27        -0.0428  -10.2268   -0.2961 H         1 <0>         0.0795
     54 H28        -1.3369  -11.9208   -1.5249 H         1 <0>         0.1342
     55 H29        -1.5665  -14.3504   -1.9983 H         1 <0>         0.1358
     56 H30         0.3683  -15.8332   -1.6471 H         1 <0>         0.1559
     57 H31         2.7188  -12.6461   -0.4047 H         1 <0>         0.1549
@<TRIPOS>BOND
     1    1    2 1
     2    1   27 1
     3    1   28 1
     4    1   29 1
     5    2    3 1
     6    2   30 1
     7    2   31 1
     8    3    4 1
     9    3    5 1
    10    3   32 1
    11    4   33 1
    12    4   34 1
    13    4   35 1
    14    5    6 1
    15    5   36 1
    16    5   37 1
    17    6    7 am
    18    6   38 1
    19    7    8 2
    20    7    9 am
    21    9   14 1
    22    9   10 1
    23   10   11 1
    24   10   39 1
    25   10   40 1
    26   11   12 1
    27   11   41 1
    28   11   42 1
    29   12   13 1
    30   12   43 1
    31   12   44 1
    32   13   14 1
    33   13   45 1
    34   13   46 1
    35   14   15 1
    36   14   47 1
    37   15   16 2
    38   15   17 1
    39   17   18 1
    40   18   19 1
    41   18   48 1
    42   18   49 1
    43   19   20 1
    44   19   50 1
    45   19   51 1
    46   20   21 1
    47   20   52 1
    48   20   53 1
    49   21   26 ar
    50   21   22 ar
    51   22   23 ar
    52   22   54 1
    53   23   24 ar
    54   23   55 1
    55   24   25 ar
    56   24   56 1
    57   25   26 ar
    58   26   57 1
@<TRIPOS>MOLECULE
CHEMBL343212__2
   57    58     0     0     0
SMALL
USER_CHARGES

@<TRIPOS>ATOM
      1 C1          3.3047    0.3483    1.4887 C.3       1 <0>        -0.1537
      2 C2          2.8212   -1.0749    1.2026 C.3       1 <0>        -0.1173
      3 C3          3.0851   -1.4178   -0.2649 C.3       1 <0>        -0.1039
      4 C4          4.5936   -1.4440   -0.5193 C.3       1 <0>        -0.1496
      5 C5          2.4904   -2.7913   -0.5826 C.3       1 <0>         0.1423
      6 N1          2.6374   -3.0679   -2.0137 N.am      1 <0>        -0.7422
      7 C6          2.1825   -4.2285   -2.5259 C.2       1 <0>         0.7030
      8 O1          1.7347   -5.0847   -1.7878 O.2       1 <0>        -0.5605
      9 N2          2.2238   -4.4401   -3.8564 N.am      1 <0>        -0.6246
     10 C7          2.8761   -3.4719   -4.7484 C.3       1 <0>         0.1159
     11 C8          1.8876   -3.0708   -5.8479 C.3       1 <0>        -0.1394
     12 C9          1.3763   -4.3294   -6.5526 C.3       1 <0>        -0.1167
     13 C10         0.6435   -5.2181   -5.5451 C.3       1 <0>        -0.1256
     14 C11         1.6227   -5.6463   -4.4416 C.3       1 <0>         0.1770
     15 C12         0.8818   -6.4102   -3.3745 C.2       1 <0>         0.4705
     16 O2          0.0798   -5.8422   -2.6716 O.2       1 <0>        -0.4675
     17 O3          1.1129   -7.7215   -3.2049 O.3       1 <0>        -0.3560
     18 C13         0.3752   -8.3824   -2.1748 C.3       1 <0>         0.0733
     19 C14         0.7700   -9.8599   -2.1324 C.3       1 <0>        -0.1125
     20 C15        -0.0198  -10.5675   -1.0295 C.3       1 <0>        -0.0737
     21 C16         0.3691  -12.0228   -0.9878 C.ar      1 <0>        -0.1330
     22 C17        -0.3128  -12.9541   -1.7564 C.ar      1 <0>        -0.0726
     23 C18         0.0795  -14.2818   -1.6862 C.ar      1 <0>        -0.1700
     24 C19         1.1299  -14.6309   -0.8583 C.ar      1 <0>         0.0935
     25 N3          1.7554  -13.7182   -0.1410 N.ar      1 <0>        -0.4832
     26 C20         1.4133  -12.4453   -0.1875 C.ar      1 <0>         0.1024
     27 H1          4.3735    0.4165    1.2861 H         1 <0>         0.0573
     28 H2          2.7683    1.0496    0.8495 H         1 <0>         0.0540
     29 H3          3.1167    0.5926    2.5342 H         1 <0>         0.0560
     30 H4          3.3576   -1.7762    1.8418 H         1 <0>         0.0662
     31 H5          1.7524   -1.1431    1.4052 H         1 <0>         0.0657
     32 H6          2.6221   -0.6650   -0.9029 H         1 <0>         0.0761
     33 H7          5.0566   -2.1968    0.1187 H         1 <0>         0.0582
     34 H8          4.7816   -1.6883   -1.5648 H         1 <0>         0.0513
     35 H9          5.0172   -0.4655   -0.2929 H         1 <0>         0.0617
     36 H10         3.0147   -3.5557   -0.0091 H         1 <0>         0.0669
     37 H11         1.4331   -2.7995   -0.3177 H         1 <0>         0.0660
     38 H12         3.0622   -2.4157   -2.5926 H         1 <0>         0.3938
     39 H13         3.1674   -2.5891   -4.1792 H         1 <0>         0.0810
     40 H14         3.7585   -3.9266   -5.1985 H         1 <0>         0.0764
     41 H15         1.0479   -2.5355   -5.4047 H         1 <0>         0.0708
     42 H16         2.3891   -2.4273   -6.5709 H         1 <0>         0.0818
     43 H17         0.6916   -4.0453   -7.3517 H         1 <0>         0.0760
     44 H18         2.2191   -4.8771   -6.9744 H         1 <0>         0.0711
     45 H19        -0.1845   -4.6626   -5.1047 H         1 <0>         0.0795
     46 H20         0.2594   -6.1031   -6.0525 H         1 <0>         0.0848
     47 H21         2.4051   -6.2748   -4.8671 H         1 <0>         0.1026
     48 H22         0.5983   -7.9190   -1.2137 H         1 <0>         0.0712
     49 H23        -0.6919   -8.2972   -2.3803 H         1 <0>         0.0640
     50 H24         0.5469  -10.3233   -3.0935 H         1 <0>         0.0743
     51 H25         1.8371   -9.9451   -1.9270 H         1 <0>         0.0761
     52 H26         0.2032  -10.1041   -0.0685 H         1 <0>         0.0815
     53 H27        -1.0869  -10.4823   -1.2350 H         1 <0>         0.0792
     54 H28        -1.1304  -12.6522   -2.3943 H         1 <0>         0.1343
     55 H29        -0.4293  -15.0341   -2.2707 H         1 <0>         0.1358
     56 H30         1.4418  -15.6631   -0.7979 H         1 <0>         0.1558
     57 H31         1.9525  -11.7255    0.4104 H         1 <0>         0.1548
@<TRIPOS>BOND
     1    1    2 1
     2    1   27 1
     3    1   28 1
     4    1   29 1
     5    2    3 1
     6    2   30 1
     7    2   31 1
     8    3    4 1
     9    3    5 1
    10    3   32 1
    11    4   33 1
    12    4   34 1
    13    4   35 1
    14    5    6 1
    15    5   36 1
    16    5   37 1
    17    6    7 am
    18    6   38 1
    19    7    8 2
    20    7    9 am
    21    9   14 1
    22    9   10 1
    23   10   11 1
    24   10   39 1
    25   10   40 1
    26   11   12 1
    27   11   41 1
    28   11   42 1
    29   12   13 1
    30   12   43 1
    31   12   44 1
    32   13   14 1
    33   13   45 1
    34   13   46 1
    35   14   15 1
    36   14   47 1
    37   15   16 2
    38   15   17 1
    39   17   18 1
    40   18   19 1
    41   18   48 1
    42   18   49 1
    43   19   20 1
    44   19   50 1
    45   19   51 1
    46   20   21 1
    47   20   52 1
    48   20   53 1
    49   21   26 ar
    50   21   22 ar
    51   22   23 ar
    52   22   54 1
    53   23   24 ar
    54   23   55 1
    55   24   25 ar
    56   24   56 1
    57   25   26 ar
    58   26   57 1
