@<TRIPOS>MOLECULE
ZINC00710121
   49    51     0     0     0
SMALL
USER_CHARGES
4-[3-(4-bromophenyl)-5-(4-dimethylaminophenyl)-4,5-dihydropyrazol-1-yl]-4-oxo-butanoic acid
@<TRIPOS>ATOM
      1 C1          2.9620   -4.7095   -4.6533 C.3       1 <0>         0.0944
      2 N1          2.8252   -3.2518   -4.7065 N.pl3     1 <0>        -0.6399
      3 C2          3.0303   -2.5426   -5.9718 C.3       1 <0>         0.0958
      4 C3          2.4992   -2.5384   -3.5508 C.ar      1 <0>         0.2160
      5 C4          2.3044   -3.2093   -2.3502 C.ar      1 <0>        -0.1956
      6 C5          1.9826   -2.5007   -1.2093 C.ar      1 <0>        -0.0535
      7 C6          1.8543   -1.1248   -1.2612 C.ar      1 <0>        -0.1434
      8 C7          2.0420   -0.4543   -2.4560 C.ar      1 <0>        -0.0493
      9 C8          2.3695   -1.1562   -3.5994 C.ar      1 <0>        -0.1890
     10 C9          1.5031   -0.3550   -0.0142 C.3       1 <0>         0.1539
     11 H1          1.7737   -0.9238    0.8754 H         1 <0>         0.0973
     12 C10         0.0021   -0.0041    0.0020 C.3       1 <0>        -0.1201
     13 C11        -0.0184    1.5078    0.0103 C.2       1 <0>         0.1084
     14 N2          1.1896    1.9546    0.0012 N.2       1 <0>        -0.2064
     15 N3          2.1647    0.9595   -0.0135 N.am      1 <0>        -0.4655
     16 C12         3.4964    1.1668   -0.0247 C.2       1 <0>         0.5509
     17 O1          4.2573    0.2221   -0.0366 O.2       1 <0>        -0.5067
     18 C13         4.0402    2.5723   -0.0224 C.3       1 <0>        -0.1026
     19 C14         5.5694    2.5275   -0.0367 C.3       1 <0>        -0.1445
     20 C15         6.1132    3.9330   -0.0344 C.2       1 <0>         0.4618
     21 O2          5.3554    4.8739   -0.0225 O.co2     1 <0>        -0.6413
     22 C16        -1.2343    2.3422    0.0209 C.ar      1 <0>        -0.0046
     23 C17        -2.4963    1.7432    0.0181 C.ar      1 <0>        -0.0885
     24 C18        -3.6293    2.5294    0.0343 C.ar      1 <0>        -0.0934
     25 C19        -3.5180    3.9095    0.0412 C.ar      1 <0>        -0.0818
     26 C20        -2.2702    4.5097    0.0378 C.ar      1 <0>        -0.0899
     27 C21        -1.1292    3.7352    0.0279 C.ar      1 <0>        -0.0763
     28 Br1        -5.0771    4.9795    0.0548 Br        1 <0>        -0.0521
     29 H2          1.9971   -5.1727   -4.8590 H         1 <0>         0.0461
     30 H3          3.6873   -5.0338   -5.3996 H         1 <0>         0.0649
     31 H4          3.3035   -5.0064   -3.6617 H         1 <0>         0.0683
     32 H5          3.8493   -1.8318   -5.8613 H         1 <0>         0.0549
     33 H6          3.2751   -3.2601   -6.7550 H         1 <0>         0.0715
     34 H7          2.1192   -2.0081   -6.2406 H         1 <0>         0.0532
     35 H8          2.4048   -4.2838   -2.3089 H         1 <0>         0.1222
     36 H9          1.8314   -3.0217   -0.2755 H         1 <0>         0.1210
     37 H10         1.9364    0.6198   -2.4940 H         1 <0>         0.1147
     38 H11         2.5203   -0.6314   -4.5312 H         1 <0>         0.1204
     39 H12        -0.4729   -0.3978    0.9006 H         1 <0>         0.1030
     40 H13        -0.4901   -0.3882   -0.8915 H         1 <0>         0.1047
     41 H14         3.6839    3.1012   -0.9063 H         1 <0>         0.0967
     42 H15         3.7003    3.0919    0.8735 H         1 <0>         0.0974
     43 H16         5.9257    1.9986    0.8473 H         1 <0>         0.0697
     44 H17         5.9093    2.0079   -0.9326 H         1 <0>         0.0694
     45 H18        -2.5845    0.6669    0.0081 H         1 <0>         0.1375
     46 H19        -4.6056    2.0675    0.0370 H         1 <0>         0.1366
     47 H20        -2.1903    5.5867    0.0433 H         1 <0>         0.1388
     48 H21        -0.1565    4.2046    0.0253 H         1 <0>         0.1474
     49 O3          7.4395    4.1395   -0.0455 O.co2     1 <0>        -0.7727
@<TRIPOS>BOND
     1    1    2 1
     2    1   29 1
     3    1   30 1
     4    1   31 1
     5    2    3 1
     6    2    4 1
     7    3   32 1
     8    3   33 1
     9    3   34 1
    10    4    9 ar
    11    4    5 ar
    12    5    6 ar
    13    5   35 1
    14    6    7 ar
    15    6   36 1
    16    7    8 ar
    17    7   10 1
    18    8    9 ar
    19    8   37 1
    20    9   38 1
    21   10   11 1
    22   10   15 1
    23   10   12 1
    24   12   13 1
    25   12   39 1
    26   12   40 1
    27   13   14 2
    28   13   22 1
    29   14   15 1
    30   15   16 am
    31   16   17 2
    32   16   18 1
    33   18   19 1
    34   18   41 1
    35   18   42 1
    36   19   20 1
    37   19   43 1
    38   19   44 1
    39   20   21 2
    40   20   49 1
    41   22   27 ar
    42   22   23 ar
    43   23   24 ar
    44   23   45 1
    45   24   25 ar
    46   24   46 1
    47   25   26 ar
    48   25   28 1
    49   26   27 ar
    50   26   47 1
    51   27   48 1
@<TRIPOS>MOLECULE
ZINC16248093
   41    44     0     0     0
SMALL
USER_CHARGES
2-[(5Z)-5-[1-[(2-chlorophenyl)methyl]-2-oxo-indolin-3-ylidene]-4-oxo-2-thioxo-thiazolidin-3-yl]acetic acid
@<TRIPOS>ATOM
      1 C1         -1.2844    6.1699   -3.6317 C.ar      1 <0>        -0.1063
      2 C2         -2.2098    7.1779   -3.8299 C.ar      1 <0>        -0.1059
      3 C3         -2.7116    7.8779   -2.7491 C.ar      1 <0>        -0.1066
      4 C4         -2.2916    7.5664   -1.4680 C.ar      1 <0>        -0.0286
      5 C5         -1.3618    6.5613   -1.2708 C.ar      1 <0>        -0.0977
      6 C6         -0.8609    5.8615   -2.3526 C.ar      1 <0>        -0.0935
      7 C7         -0.8996    6.2252    0.1236 C.3       1 <0>         0.1575
      8 N1          0.1235    5.1786    0.0600 N.am      1 <0>        -0.5438
      9 C8         -0.1446    3.8159    0.1217 C.ar      1 <0>         0.1597
     10 C9         -1.3375    3.1137    0.2492 C.ar      1 <0>        -0.1433
     11 C10        -1.3296    1.7334    0.2810 C.ar      1 <0>        -0.0638
     12 C11        -0.1381    1.0320    0.1976 C.ar      1 <0>        -0.1454
     13 C12         1.0569    1.7105    0.0705 C.ar      1 <0>        -0.0392
     14 C13         1.0595    3.1024    0.0321 C.ar      1 <0>        -0.1230
     15 C14         2.1337    4.1094   -0.0930 C.2       1 <0>        -0.0045
     16 C15         3.4911    3.8807   -0.2095 C.2       1 <0>        -0.1170
     17 C16         4.2536    2.6085   -0.0851 C.2       1 <0>         0.5488
     18 O1          3.7033    1.5516    0.1539 O.2       1 <0>        -0.4346
     19 N2          5.5634    2.6921   -0.2487 N.am      1 <0>        -0.4898
     20 C17         6.1689    3.8669   -0.5132 C.2       1 <0>         0.2816
     21 S1          7.8366    4.1701   -0.7542 S.2       1 <0>        -0.3140
     22 S2          4.8151    5.0299   -0.5588 S.3       1 <0>         0.0973
     23 C18         6.3760    1.4779   -0.1403 C.3       1 <0>         0.0344
     24 C19         6.4954    0.8306   -1.4959 C.2       1 <0>         0.4671
     25 O2          5.9569    1.3320   -2.4544 O.co2     1 <0>        -0.6238
     26 C20         1.4408    5.4136   -0.0659 C.2       1 <0>         0.5592
     27 O3          1.9690    6.5069   -0.1433 O.2       1 <0>        -0.4618
     28 Cl1        -2.9268    8.4404   -0.1093 Cl        1 <0>        -0.0668
     29 H1         -0.8926    5.6232   -4.4766 H         1 <0>         0.1323
     30 H2         -2.5409    7.4180   -4.8294 H         1 <0>         0.1340
     31 H3         -3.4347    8.6650   -2.9040 H         1 <0>         0.1357
     32 H4         -0.1383    5.0738   -2.1984 H         1 <0>         0.1276
     33 H5         -1.7462    5.8705    0.7114 H         1 <0>         0.1087
     34 H6         -0.4798    7.1156    0.5917 H         1 <0>         0.1117
     35 H7         -2.2730    3.6489    0.3194 H         1 <0>         0.1289
     36 H8         -2.2612    1.1954    0.3758 H         1 <0>         0.1337
     37 H9         -0.1446   -0.0476    0.2274 H         1 <0>         0.1348
     38 H10         1.9859    1.1643    0.0009 H         1 <0>         0.1682
     39 H11         7.3689    1.7368    0.2274 H         1 <0>         0.1200
     40 H12         5.9013    0.7838    0.5532 H         1 <0>         0.1110
     41 O4          7.1998   -0.3030   -1.6387 O.co2     1 <0>        -0.7430
@<TRIPOS>BOND
     1    1    6 ar
     2    1    2 ar
     3    1   29 1
     4    2    3 ar
     5    2   30 1
     6    3    4 ar
     7    3   31 1
     8    4    5 ar
     9    4   28 1
    10    5    6 ar
    11    5    7 1
    12    6   32 1
    13    7    8 1
    14    7   33 1
    15    7   34 1
    16    8   26 am
    17    8    9 1
    18    9   14 ar
    19    9   10 ar
    20   10   11 ar
    21   10   35 1
    22   11   12 ar
    23   11   36 1
    24   12   13 ar
    25   12   37 1
    26   13   14 ar
    27   13   38 1
    28   14   15 1
    29   15   16 2
    30   15   26 1
    31   16   22 1
    32   16   17 1
    33   17   18 2
    34   17   19 am
    35   19   20 1
    36   19   23 1
    37   20   21 2
    38   20   22 1
    39   23   24 1
    40   23   39 1
    41   23   40 1
    42   24   25 2
    43   24   41 1
    44   26   27 2
@<TRIPOS>MOLECULE
ZINC32906728
   43    45     0     0     0
SMALL
USER_CHARGES
N-[2-(2-chlorophenoxy)phenyl]-4-methylsulfonyl-benzenesulfonamide
@<TRIPOS>ATOM
      1 C1         -0.1277   -4.2333   -7.7567 C.3       1 <0>        -0.6542
      2 S1         -0.4311   -2.6892   -6.8543 S.o2      1 <0>         2.4990
      3 O1         -1.8031   -2.3304   -6.9456 O.2       1 <0>        -0.9381
      4 O2          0.5865   -1.7421   -7.1488 O.2       1 <0>        -0.9382
      5 C2         -0.1858   -3.1001   -5.1586 C.ar      1 <0>        -0.6316
      6 C3          1.0690   -2.9760   -4.5919 C.ar      1 <0>        -0.0502
      7 C4          1.2613   -3.2975   -3.2613 C.ar      1 <0>        -0.0455
      8 C5          0.1987   -3.7426   -2.4972 C.ar      1 <0>        -0.6015
      9 C6         -1.0549   -3.8717   -3.0652 C.ar      1 <0>        -0.0492
     10 C7         -1.2481   -3.5461   -4.3947 C.ar      1 <0>        -0.0503
     11 S2          0.4438   -4.1524   -0.8011 S.o2      1 <0>         2.5808
     12 O3          1.8211   -4.4705   -0.6551 O.2       1 <0>        -0.9866
     13 O4         -0.5896   -5.0621   -0.4496 O.2       1 <0>        -1.0315
     14 N1          0.1805   -2.7742    0.0785 N.2       1 <0>        -1.0371
     15 C8         -1.0677   -2.1431    0.0334 C.ar      1 <0>         0.2343
     16 C9         -2.2263   -2.8995   -0.0656 C.ar      1 <0>        -0.2357
     17 C10        -3.4580   -2.2739   -0.1095 C.ar      1 <0>        -0.0799
     18 C11        -3.5391   -0.8947   -0.0546 C.ar      1 <0>        -0.1873
     19 C12        -2.3890   -0.1343    0.0494 C.ar      1 <0>        -0.0954
     20 C13        -1.1502   -0.7532    0.0882 C.ar      1 <0>         0.0165
     21 O5         -0.0178   -0.0065    0.1852 O.3       1 <0>        -0.2239
     22 C14         0.4953    0.2164    1.4237 C.ar      1 <0>         0.1691
     23 C15        -0.1672   -0.2586    2.5463 C.ar      1 <0>        -0.1758
     24 C16         0.3592   -0.0354    3.8039 C.ar      1 <0>        -0.0804
     25 C17         1.5401    0.6700    3.9457 C.ar      1 <0>        -0.1612
     26 C18         2.2000    1.1498    2.8296 C.ar      1 <0>        -0.0803
     27 C19         1.6806    0.9249    1.5683 C.ar      1 <0>        -0.0738
     28 Cl1         2.5097    1.5269    0.1670 Cl        1 <0>        -0.0685
     29 H1          0.9365   -4.5004   -7.6788 H         1 <0>         0.1333
     30 H2         -0.3953   -4.0981   -8.8150 H         1 <0>         0.1324
     31 H3         -0.7403   -5.0376   -7.3234 H         1 <0>         0.1330
     32 H4          1.8989   -2.6276   -5.1886 H         1 <0>         0.1424
     33 H5          2.2416   -3.2006   -2.8185 H         1 <0>         0.1437
     34 H6         -1.8841   -4.2236   -2.4694 H         1 <0>         0.1430
     35 H7         -2.2285   -3.6427   -4.8374 H         1 <0>         0.1422
     36 H8         -2.1660   -3.9770   -0.1079 H         1 <0>         0.1529
     37 H9         -4.3594   -2.8638   -0.1866 H         1 <0>         0.1111
     38 H10        -4.5038   -0.4102   -0.0889 H         1 <0>         0.1124
     39 H11        -2.4562    0.9426    0.0966 H         1 <0>         0.1154
     40 H12        -1.0917   -0.8061    2.4369 H         1 <0>         0.1348
     41 H13        -0.1543   -0.4087    4.6776 H         1 <0>         0.1237
     42 H14         1.9474    0.8467    4.9302 H         1 <0>         0.1249
     43 H15         3.1218    1.7011    2.9432 H         1 <0>         0.1315
@<TRIPOS>BOND
     1    1    2 1
     2    1   29 1
     3    1   30 1
     4    1   31 1
     5    2    3 2
     6    2    4 2
     7    2    5 1
     8    5   10 ar
     9    5    6 ar
    10    6    7 ar
    11    6   32 1
    12    7    8 ar
    13    7   33 1
    14    8    9 ar
    15    8   11 1
    16    9   10 ar
    17    9   34 1
    18   10   35 1
    19   11   12 2
    20   11   13 2
    21   11   14 1
    22   14   15 1
    23   15   20 ar
    24   15   16 ar
    25   16   17 ar
    26   16   36 1
    27   17   18 ar
    28   17   37 1
    29   18   19 ar
    30   18   38 1
    31   19   20 ar
    32   19   39 1
    33   20   21 1
    34   21   22 1
    35   22   27 ar
    36   22   23 ar
    37   23   24 ar
    38   23   40 1
    39   24   25 ar
    40   24   41 1
    41   25   26 ar
    42   25   42 1
    43   26   27 ar
    44   26   43 1
    45   27   28 1
@<TRIPOS>MOLECULE
ZINC39997763
   47    50     0     0     0
SMALL
USER_CHARGES

@<TRIPOS>ATOM
      1 C1         -1.0564    2.2011   -1.3906 C.3       1 <0>         0.0251
      2 O1         -0.8216    0.8276   -1.0735 O.3       1 <0>        -0.3068
      3 C2         -1.9142    0.0320   -0.9301 C.ar      1 <0>         0.1066
      4 C3         -3.1851    0.5639   -1.0976 C.ar      1 <0>        -0.1847
      5 C4         -4.2961   -0.2403   -0.9534 C.ar      1 <0>        -0.0547
      6 C5         -4.1426   -1.5904   -0.6387 C.ar      1 <0>        -0.0263
      7 C6         -2.8648   -2.1235   -0.4707 C.ar      1 <0>        -0.0848
      8 C7         -1.7562   -1.3144   -0.6216 C.ar      1 <0>         0.0783
      9 F1         -0.5175   -1.8302   -0.4643 F         1 <0>        -0.1242
     10 C8         -5.3346   -2.4564   -0.4827 C.2       1 <0>         0.1583
     11 C9         -5.4389   -3.8748   -0.8521 C.2       1 <0>        -0.2049
     12 C10        -6.7282   -4.2663   -0.5279 C.2       1 <0>         0.0799
     13 N1         -7.3624   -3.2002   -0.0094 N.pl3     1 <0>        -0.3095
     14 N2         -6.4971   -2.1032    0.0173 N.2       1 <0>        -0.2747
     15 C11        -8.6884   -3.1919    0.4413 C.ar      1 <0>         0.1566
     16 C12        -9.4529   -4.3494    0.3759 C.ar      1 <0>        -0.1369
     17 C13       -10.7602   -4.3379    0.8211 C.ar      1 <0>        -0.0900
     18 C14       -11.3081   -3.1753    1.3316 C.ar      1 <0>        -0.1294
     19 C15       -10.5496   -2.0209    1.3977 C.ar      1 <0>        -0.0980
     20 C16        -9.2398   -2.0275    0.9598 C.ar      1 <0>        -0.1178
     21 C17        -4.3922   -4.7064   -1.4436 C.2       1 <0>         0.0480
     22 C18        -4.5064   -6.0817   -1.4177 C.2       1 <0>        -0.0492
     23 C19        -5.5725   -6.6980   -0.6868 C.1       1 <0>         0.2868
     24 N3         -6.4182   -7.1869   -0.1069 N.1       1 <0>        -0.4467
     25 C20        -3.5347   -6.9129   -2.1397 C.2       1 <0>         0.4656
     26 O2         -2.5279   -6.3308   -2.8301 O.3       1 <0>        -0.6337
     27 N4         -3.6437   -8.2239   -2.1151 N.2       1 <0>        -0.6157
     28 C21        -2.7452   -8.9924   -2.7827 C.2       1 <0>         0.4130
     29 N5         -1.6927   -8.6240   -3.5067 N.2       1 <0>        -0.5685
     30 C22        -0.9230   -9.5168   -4.0888 C.2       1 <0>         0.0786
     31 C23        -1.1983  -10.8393   -3.9551 C.2       1 <0>        -0.3104
     32 S1         -2.6541  -10.7729   -2.9186 S.3       1 <0>        -0.1139
     33 H1         -0.1029    2.7222   -1.4768 H         1 <0>         0.1027
     34 H2         -1.5942    2.2688   -2.3363 H         1 <0>         0.0592
     35 H3         -1.6512    2.6598   -0.6007 H         1 <0>         0.0579
     36 H4         -3.3042    1.6094   -1.3409 H         1 <0>         0.1422
     37 H5         -5.2844    0.1752   -1.0837 H         1 <0>         0.1378
     38 H6         -2.7425   -3.1685   -0.2270 H         1 <0>         0.1551
     39 H7         -7.1485   -5.2514   -0.6671 H         1 <0>         0.1904
     40 H8         -9.0257   -5.2576   -0.0230 H         1 <0>         0.1324
     41 H9        -11.3553   -5.2376    0.7702 H         1 <0>         0.1343
     42 H10       -12.3306   -3.1689    1.6791 H         1 <0>         0.1284
     43 H11       -10.9805   -1.1145    1.7965 H         1 <0>         0.1317
     44 H12        -8.6463   -1.1269    1.0165 H         1 <0>         0.1388
     45 H13        -3.5295   -4.2447   -1.9008 H         1 <0>         0.1632
     46 H14        -0.0726   -9.1983   -4.6733 H         1 <0>         0.1385
     47 H15        -0.6789  -11.6955   -4.3594 H         1 <0>         0.1717
@<TRIPOS>BOND
     1    1    2 1
     2    1   33 1
     3    1   34 1
     4    1   35 1
     5    2    3 1
     6    3    8 ar
     7    3    4 ar
     8    4    5 ar
     9    4   36 1
    10    5    6 ar
    11    5   37 1
    12    6    7 ar
    13    6   10 1
    14    7    8 ar
    15    7   38 1
    16    8    9 1
    17   10   14 2
    18   10   11 1
    19   11   12 2
    20   11   21 1
    21   12   13 1
    22   12   39 1
    23   13   14 1
    24   13   15 1
    25   15   20 ar
    26   15   16 ar
    27   16   17 ar
    28   16   40 1
    29   17   18 ar
    30   17   41 1
    31   18   19 ar
    32   18   42 1
    33   19   20 ar
    34   19   43 1
    35   20   44 1
    36   21   22 2
    37   21   45 1
    38   22   23 1
    39   22   25 1
    40   23   24 3
    41   25   26 1
    42   25   27 2
    43   27   28 1
    44   28   32 1
    45   28   29 2
    46   29   30 1
    47   30   31 2
    48   30   46 1
    49   31   32 1
    50   31   47 1
@<TRIPOS>MOLECULE
ZINC59250666
   46    48     0     0     0
SMALL
USER_CHARGES

@<TRIPOS>ATOM
      1 C1         -0.0184    1.5028    0.0103 C.3       1 <0>        -0.1177
      2 C2          0.0021   -0.0041    0.0020 C.ar      1 <0>        -0.0514
      3 C3          0.0057   -0.6888   -1.1991 C.ar      1 <0>        -0.1430
      4 C4          0.0245   -2.0707   -1.2067 C.ar      1 <0>        -0.0245
      5 C5          0.0400   -2.7685   -0.0132 C.ar      1 <0>        -0.6294
      6 C6          0.0373   -2.0840    1.1875 C.ar      1 <0>        -0.0186
      7 C7          0.0229   -0.7015    1.1951 C.ar      1 <0>        -0.1157
      8 C8          0.0252    0.0449    2.5043 C.3       1 <0>        -0.1124
      9 S1          0.0628   -4.5303   -0.0229 S.o2      1 <0>         2.6495
     10 O1         -0.4759   -4.9503    1.2232 O.2       1 <0>        -1.0060
     11 O2         -0.4897   -4.9367   -1.2674 O.2       1 <0>        -1.0060
     12 N1          1.6509   -4.9994   -0.0342 N.2       1 <0>        -1.0583
     13 C9          1.9556   -6.2646   -0.0428 C.2       1 <0>         0.5583
     14 O3          0.9753   -7.1963   -0.0424 O.3       1 <0>        -0.7134
     15 C10         3.3724   -6.6832   -0.0529 C.2       1 <0>        -0.1973
     16 C11         3.8534   -8.0110   -0.0690 C.2       1 <0>         0.1246
     17 N2          5.1578   -7.9702   -0.0746 N.2       1 <0>        -0.3101
     18 N3          5.5686   -6.6324   -0.0625 N.pl3     1 <0>        -0.3413
     19 C12         4.4703   -5.8506   -0.0545 C.2       1 <0>         0.1607
     20 C13         4.4476   -4.3438   -0.0462 C.3       1 <0>        -0.1018
     21 C14         6.8925   -6.1832   -0.0639 C.ar      1 <0>         0.4210
     22 C15         7.8989   -7.0058    0.4273 C.ar      1 <0>        -0.1681
     23 C16         9.2055   -6.5491    0.4197 C.ar      1 <0>        -0.0012
     24 C17         9.4602   -5.2800   -0.0812 C.ar      1 <0>        -0.2688
     25 C18         8.4105   -4.5166   -0.5536 C.ar      1 <0>         0.1903
     26 N4          7.1761   -4.9809   -0.5380 N.ar      1 <0>        -0.4962
     27 C19        10.8671   -4.7404   -0.1090 C.3       1 <0>         0.5215
     28 F1         11.4741   -5.0833   -1.3219 F         1 <0>        -0.1748
     29 F2         10.8350   -3.3477    0.0191 F         1 <0>        -0.1744
     30 F3         11.5981   -5.2895    0.9499 F         1 <0>        -0.1762
     31 H1          1.0042    1.8801    0.0026 H         1 <0>         0.0726
     32 H2         -0.5455    1.8639   -0.8728 H         1 <0>         0.0665
     33 H3         -0.5286    1.8543    0.9071 H         1 <0>         0.0691
     34 H4         -0.0064   -0.1437   -2.1314 H         1 <0>         0.1253
     35 H5          0.0266   -2.6056   -2.1449 H         1 <0>         0.1364
     36 H6          0.0491   -2.6290    2.1199 H         1 <0>         0.1358
     37 H7         -1.0017    0.2110    2.8297 H         1 <0>         0.0681
     38 H8          0.5542   -0.5412    3.2558 H         1 <0>         0.0680
     39 H9          0.5249    1.0049    2.3743 H         1 <0>         0.0665
     40 H10         3.2471   -8.9048   -0.0755 H         1 <0>         0.2025
     41 H11         4.4483   -3.9861    0.9834 H         1 <0>         0.0737
     42 H12         5.3290   -3.9643   -0.5633 H         1 <0>         0.0855
     43 H13         3.5492   -3.9912   -0.5528 H         1 <0>         0.1198
     44 H14         7.6647   -7.9881    0.8102 H         1 <0>         0.1594
     45 H15        10.0085   -7.1660    0.7954 H         1 <0>         0.1549
     46 H16         8.6034   -3.5284   -0.9444 H         1 <0>         0.1770
@<TRIPOS>BOND
     1    1    2 1
     2    1   31 1
     3    1   32 1
     4    1   33 1
     5    2    7 ar
     6    2    3 ar
     7    3    4 ar
     8    3   34 1
     9    4    5 ar
    10    4   35 1
    11    5    6 ar
    12    5    9 1
    13    6    7 ar
    14    6   36 1
    15    7    8 1
    16    8   37 1
    17    8   38 1
    18    8   39 1
    19    9   10 2
    20    9   11 2
    21    9   12 1
    22   12   13 2
    23   13   14 1
    24   13   15 1
    25   15   19 2
    26   15   16 1
    27   16   17 2
    28   16   40 1
    29   17   18 1
    30   18   19 1
    31   18   21 1
    32   19   20 1
    33   20   41 1
    34   20   42 1
    35   20   43 1
    36   21   26 ar
    37   21   22 ar
    38   22   23 ar
    39   22   44 1
    40   23   24 ar
    41   23   45 1
    42   24   25 ar
    43   24   27 1
    44   25   26 ar
    45   25   46 1
    46   27   28 1
    47   27   29 1
    48   27   30 1
@<TRIPOS>MOLECULE
ZINC08738748
   44    48     0     0     0
SMALL
USER_CHARGES

@<TRIPOS>ATOM
      1 C1          6.1271   -2.8479   -5.4315 C.ar      1 <0>        -0.1250
      2 C2          6.1288   -1.4873   -5.1834 C.ar      1 <0>        -0.1044
      3 C3          5.5455   -0.9927   -4.0337 C.ar      1 <0>        -0.0974
      4 C4          4.9559   -1.8639   -3.1256 C.ar      1 <0>        -0.1147
      5 C5          4.9557   -3.2303   -3.3784 C.ar      1 <0>        -0.1173
      6 C6          5.5413   -3.7178   -4.5299 C.ar      1 <0>        -0.1027
      7 S1          4.2109   -1.2374   -1.6569 S.3       1 <0>         0.1012
      8 C7          3.4708   -2.6546   -0.9164 C.2       1 <0>        -0.0602
      9 C8          4.0436   -3.4431    0.0646 C.2       1 <0>        -0.1424
     10 C9          3.1335   -4.4467    0.3666 C.2       1 <0>        -0.1738
     11 C10         2.0206   -4.2392   -0.4472 C.2       1 <0>         0.0353
     12 O1          2.2554   -3.1442   -1.2070 O.3       1 <0>        -0.0867
     13 C11         0.8667   -5.0196   -0.4706 C.2       1 <0>         0.0585
     14 C12        -0.3852   -4.4127   -0.6133 C.2       1 <0>        -0.2488
     15 C13        -0.5360   -2.9496   -0.5527 C.2       1 <0>         0.5280
     16 N1         -1.7649   -2.4240   -0.6966 N.2       1 <0>        -0.6571
     17 C14        -2.8143   -3.1866   -0.8874 C.2       1 <0>         0.6319
     18 O2         -4.0203   -2.6003   -1.0247 O.3       1 <0>        -0.6377
     19 N2         -2.7398   -4.5434   -0.9532 N.am      1 <0>        -0.5292
     20 C15        -1.5608   -5.1863   -0.8285 C.2       1 <0>         0.5687
     21 O3         -1.5038   -6.4013   -0.8938 O.2       1 <0>        -0.5179
     22 C16        -3.9106   -5.2875   -1.1600 C.ar      1 <0>         0.1700
     23 C17        -4.4130   -6.0880   -0.1432 C.ar      1 <0>        -0.0928
     24 C18        -5.5660   -6.8220   -0.3453 C.ar      1 <0>        -0.0905
     25 C19        -6.2244   -6.7609   -1.5631 C.ar      1 <0>         0.0251
     26 C20        -5.7229   -5.9583   -2.5850 C.ar      1 <0>         0.0382
     27 C21        -4.5701   -5.2191   -2.3794 C.ar      1 <0>        -0.0716
     28 O4         -6.5432   -6.0705   -3.6704 O.3       1 <0>        -0.3078
     29 C22        -7.3206   -7.2610   -3.4436 C.3       1 <0>         0.2136
     30 O5         -7.3594   -7.3760   -2.0089 O.3       1 <0>        -0.3106
     31 O6          0.4332   -2.2296   -0.3752 O.2       1 <0>        -0.5180
     32 H1          6.5805   -3.2315   -6.3335 H         1 <0>         0.1235
     33 H2          6.5872   -0.8108   -5.8896 H         1 <0>         0.1274
     34 H3          5.5478    0.0698   -3.8402 H         1 <0>         0.1290
     35 H4          4.4987   -3.9102   -2.6746 H         1 <0>         0.1217
     36 H5          5.5415   -4.7797   -4.7270 H         1 <0>         0.1245
     37 H6          5.0169   -3.3043    0.5118 H         1 <0>         0.1600
     38 H7          3.2628   -5.2365    1.0918 H         1 <0>         0.1608
     39 H8          0.9390   -6.0933   -0.3785 H         1 <0>         0.1675
     40 H9         -3.9018   -6.1374    0.8069 H         1 <0>         0.1371
     41 H10        -5.9545   -7.4446    0.4470 H         1 <0>         0.1389
     42 H11        -4.1820   -4.5927   -3.1689 H         1 <0>         0.1363
     43 H12        -8.3269   -7.1438   -3.8458 H         1 <0>         0.1282
     44 H13        -6.8296   -8.1287   -3.8842 H         1 <0>         0.0808
@<TRIPOS>BOND
     1    1    6 ar
     2    1    2 ar
     3    1   32 1
     4    2    3 ar
     5    2   33 1
     6    3    4 ar
     7    3   34 1
     8    4    5 ar
     9    4    7 1
    10    5    6 ar
    11    5   35 1
    12    6   36 1
    13    7    8 1
    14    8   12 1
    15    8    9 2
    16    9   10 1
    17    9   37 1
    18   10   11 2
    19   10   38 1
    20   11   12 1
    21   11   13 1
    22   13   14 2
    23   13   39 1
    24   14   20 1
    25   14   15 1
    26   15   16 1
    27   15   31 2
    28   16   17 2
    29   17   18 1
    30   17   19 1
    31   19   20 am
    32   19   22 1
    33   20   21 2
    34   22   27 ar
    35   22   23 ar
    36   23   24 ar
    37   23   40 1
    38   24   25 ar
    39   24   41 1
    40   25   30 1
    41   25   26 ar
    42   26   27 ar
    43   26   28 1
    44   27   42 1
    45   28   29 1
    46   29   30 1
    47   29   43 1
    48   29   44 1
@<TRIPOS>MOLECULE
ZINC11866665
   40    42     0     0     0
SMALL
USER_CHARGES
2-[(5E)-5-[(3-bromophenyl)methylene]-4-oxo-2-thioxo-thiazolidin-3-yl]-N-(4-nitrophenyl)acetamide
@<TRIPOS>ATOM
      1 C1          1.5655    3.0669   -0.4106 C.ar      1 <0>        -0.1239
      2 C2          0.4942    2.2120   -0.5612 C.ar      1 <0>        -0.0618
      3 C3         -0.6680    2.4132    0.1914 C.ar      1 <0>        -0.1034
      4 C4         -0.7295    3.4762    1.0994 C.ar      1 <0>        -0.0166
      5 C5          0.3510    4.3223    1.2387 C.ar      1 <0>        -0.1011
      6 C6          1.4958    4.1188    0.4857 C.ar      1 <0>        -0.0616
      7 Br1         0.2690    5.7637    2.4599 Br        1 <0>        -0.0416
      8 C7         -1.8167    1.5096    0.0328 C.2       1 <0>         0.1023
      9 C8         -3.0793    2.0001    0.0982 C.2       1 <0>        -0.2476
     10 C9         -3.5437    3.4024    0.1623 C.2       1 <0>         0.5435
     11 O1         -2.7627    4.3355    0.1628 O.2       1 <0>        -0.4432
     12 N1         -4.8515    3.5903    0.2196 N.am      1 <0>        -0.5091
     13 C10        -5.7134    2.5533    0.2193 C.2       1 <0>         0.2768
     14 S1         -7.4236    2.5926    0.2874 S.2       1 <0>        -0.3178
     15 S2         -4.6404    1.1293    0.1227 S.3       1 <0>         0.0956
     16 C11        -5.3759    4.9567    0.2854 C.3       1 <0>         0.0661
     17 C12        -5.6111    5.4722   -1.1110 C.2       1 <0>         0.5136
     18 O2         -5.3649    4.7677   -2.0670 O.2       1 <0>        -0.4952
     19 N2         -6.0950    6.7162   -1.2974 N.am      1 <0>        -0.6660
     20 C13        -6.4229    7.1536   -2.5855 C.ar      1 <0>         0.2030
     21 C14        -6.2532    8.4878   -2.9315 C.ar      1 <0>        -0.1435
     22 C15        -6.5732    8.9154   -4.2052 C.ar      1 <0>        -0.0305
     23 C16        -7.0720    8.0188   -5.1322 C.ar      1 <0>        -0.0611
     24 C17        -7.2471    6.6907   -4.7891 C.ar      1 <0>        -0.0301
     25 C18        -6.9240    6.2557   -3.5187 C.ar      1 <0>        -0.1219
     26 N3         -7.4198    8.4817   -6.4944 N.pl3     1 <0>         0.0297
     27 O3         -7.8596    7.6931   -7.3119 O.2       1 <0>        -0.1589
     28 O4         -7.2661    9.6512   -6.7980 O.3       1 <0>        -0.1595
     29 H1          2.4615    2.9152   -0.9942 H         1 <0>         0.1407
     30 H2          0.5503    1.3917   -1.2615 H         1 <0>         0.1391
     31 H3         -1.6217    3.6360    1.6866 H         1 <0>         0.1342
     32 H4          2.3384    4.7850    0.5986 H         1 <0>         0.1380
     33 H5         -1.6551    0.4552   -0.1359 H         1 <0>         0.1666
     34 H6         -6.3162    4.9588    0.8367 H         1 <0>         0.1505
     35 H7         -4.6556    5.5982    0.7931 H         1 <0>         0.1428
     36 H8         -6.2161    7.3083   -0.5387 H         1 <0>         0.4224
     37 H9         -5.8678    9.1895   -2.2065 H         1 <0>         0.1532
     38 H10        -6.4379    9.9521   -4.4760 H         1 <0>         0.1604
     39 H11        -7.6372    5.9929   -5.5153 H         1 <0>         0.1590
     40 H12        -7.0613    5.2184   -3.2513 H         1 <0>         0.1568
@<TRIPOS>BOND
     1    1    6 ar
     2    1    2 ar
     3    1   29 1
     4    2    3 ar
     5    2   30 1
     6    3    4 ar
     7    3    8 1
     8    4    5 ar
     9    4   31 1
    10    5    6 ar
    11    5    7 1
    12    6   32 1
    13    8    9 2
    14    8   33 1
    15    9   15 1
    16    9   10 1
    17   10   11 2
    18   10   12 am
    19   12   13 1
    20   12   16 1
    21   13   14 2
    22   13   15 1
    23   16   17 1
    24   16   34 1
    25   16   35 1
    26   17   18 2
    27   17   19 am
    28   19   20 1
    29   19   36 1
    30   20   25 ar
    31   20   21 ar
    32   21   22 ar
    33   21   37 1
    34   22   23 ar
    35   22   38 1
    36   23   24 ar
    37   23   26 1
    38   24   25 ar
    39   24   39 1
    40   25   40 1
    41   26   27 2
    42   26   28 1
@<TRIPOS>MOLECULE
ZINC24630945
   60    64     0     0     0
SMALL
USER_CHARGES

@<TRIPOS>ATOM
      1 C1         -0.0187    1.5258    0.0104 C.3       1 <0>        -0.1451
      2 C2          0.0021   -0.0041    0.0020 C.3       1 <0>        -0.0668
      3 C3          0.7421   -0.5109    1.2415 C.3       1 <0>        -0.1468
      4 C4         -1.4117   -0.5257    0.0127 C.ar      1 <0>        -0.0186
      5 C5         -2.2591   -0.2043    1.0565 C.ar      1 <0>        -0.1361
      6 C6         -3.5560   -0.6827    1.0663 C.ar      1 <0>        -0.0179
      7 C7         -4.0056   -1.4823    0.0321 C.ar      1 <0>        -0.6827
      8 C8         -3.1585   -1.8029   -1.0121 C.ar      1 <0>        -0.0165
      9 C9         -1.8629   -1.3209   -1.0241 C.ar      1 <0>        -0.1390
     10 S1         -5.6583   -2.0931    0.0452 S.o2      1 <0>         2.6891
     11 O1         -5.6648   -3.2642   -0.7596 O.2       1 <0>        -0.9520
     12 O2         -6.0782   -2.0993    1.4027 O.2       1 <0>        -0.9530
     13 N1         -6.5991   -0.9766   -0.7361 N.pl3     1 <0>        -0.9989
     14 C10        -7.2326    0.1262    0.0026 C.3       1 <0>         0.1274
     15 C11        -6.8972    1.4428   -0.7061 C.3       1 <0>         0.0399
     16 N2         -7.2777    1.3440   -2.1216 N.3       1 <0>        -0.5125
     17 C12        -6.5042    0.3019   -2.8098 C.3       1 <0>         0.0366
     18 C13        -6.8185   -1.0580   -2.1882 C.3       1 <0>         0.1292
     19 C14        -7.1324    2.6402   -2.7975 C.3       1 <0>         0.1031
     20 C15        -7.7569    2.5654   -4.1669 C.2       1 <0>         0.4038
     21 N3         -7.7306    3.6588   -4.9717 N.am      1 <0>        -0.6360
     22 H1         -7.3096    4.4728   -4.6539 H         1 <0>         0.4198
     23 C16        -8.2769    3.6355   -6.2024 C.2       1 <0>         0.5563
     24 O3         -8.2459    4.6245   -6.9142 O.2       1 <0>        -0.5200
     25 C17        -8.8949    2.4265   -6.6596 C.2       1 <0>        -0.2369
     26 C18        -9.5474    2.1746   -7.9531 C.2       1 <0>        -0.0755
     27 C19       -10.0580    0.9465   -8.1468 C.2       1 <0>        -0.1970
     28 S2         -9.7060    0.0605   -6.6458 S.3       1 <0>         0.1928
     29 C20        -8.8732    1.3519   -5.7609 C.2       1 <0>         0.0983
     30 N4         -8.3086    1.4482   -4.5596 N.2       1 <0>        -0.4558
     31 C21       -10.7036    0.8063   -9.4991 C.3       1 <0>        -0.0333
     32 C22       -10.9123    2.2586   -9.9815 C.3       1 <0>        -0.1176
     33 C23        -9.8052    3.0063   -9.2127 C.3       1 <0>        -0.0631
     34 H2          1.0039    1.9031    0.0027 H         1 <0>         0.0634
     35 H3         -0.5459    1.8868   -0.8726 H         1 <0>         0.0562
     36 H4         -0.5289    1.8773    0.9072 H         1 <0>         0.0590
     37 H5          0.5123   -0.3556   -0.8948 H         1 <0>         0.0831
     38 H6          0.2319   -0.1594    2.1383 H         1 <0>         0.0593
     39 H7          0.7568   -1.6008    1.2356 H         1 <0>         0.0584
     40 H8          1.7647   -0.1336    1.2338 H         1 <0>         0.0636
     41 H9         -1.9079    0.4204    1.8645 H         1 <0>         0.1319
     42 H10        -4.2179   -0.4322    1.8822 H         1 <0>         0.1388
     43 H11        -3.5096   -2.4278   -1.8199 H         1 <0>         0.1388
     44 H12        -1.2022   -1.5684   -1.8418 H         1 <0>         0.1319
     45 H13        -8.3131   -0.0164    0.0180 H         1 <0>         0.0882
     46 H14        -6.8492    0.1515    1.0226 H         1 <0>         0.0953
     47 H15        -7.4478    2.2586   -0.2376 H         1 <0>         0.0935
     48 H16        -5.8270    1.6347   -0.6297 H         1 <0>         0.0441
     49 H17        -6.7697    0.2902   -3.8669 H         1 <0>         0.1080
     50 H18        -5.4395    0.5096   -2.7040 H         1 <0>         0.0358
     51 H19        -6.1615   -1.8153   -2.6159 H         1 <0>         0.0928
     52 H20        -7.8585   -1.3166   -2.3875 H         1 <0>         0.0894
     53 H21        -7.6312    3.4129   -2.2124 H         1 <0>         0.1187
     54 H22        -6.0742    2.8834   -2.8934 H         1 <0>         0.0767
     55 H23       -10.0443    0.2699  -10.1816 H         1 <0>         0.0887
     56 H24       -11.6613    0.2931   -9.4121 H         1 <0>         0.0831
     57 H25       -10.7613    2.3377  -11.0581 H         1 <0>         0.0864
     58 H26       -11.8992    2.6255   -9.6994 H         1 <0>         0.0780
     59 H27       -10.1440    4.0062   -8.9415 H         1 <0>         0.0794
     60 H28        -8.9001    3.0653   -9.8174 H         1 <0>         0.0821
@<TRIPOS>BOND
     1    1    2 1
     2    1   34 1
     3    1   35 1
     4    1   36 1
     5    2    3 1
     6    2    4 1
     7    2   37 1
     8    3   38 1
     9    3   39 1
    10    3   40 1
    11    4    9 ar
    12    4    5 ar
    13    5    6 ar
    14    5   41 1
    15    6    7 ar
    16    6   42 1
    17    7    8 ar
    18    7   10 1
    19    8    9 ar
    20    8   43 1
    21    9   44 1
    22   10   11 2
    23   10   12 2
    24   10   13 1
    25   13   18 1
    26   13   14 1
    27   14   15 1
    28   14   45 1
    29   14   46 1
    30   15   16 1
    31   15   47 1
    32   15   48 1
    33   16   17 1
    34   16   19 1
    35   17   18 1
    36   17   49 1
    37   17   50 1
    38   18   51 1
    39   18   52 1
    40   19   20 1
    41   19   53 1
    42   19   54 1
    43   20   30 2
    44   20   21 1
    45   21   22 1
    46   21   23 am
    47   23   24 2
    48   23   25 1
    49   25   29 2
    50   25   26 1
    51   26   33 1
    52   26   27 2
    53   27   28 1
    54   27   31 1
    55   28   29 1
    56   29   30 1
    57   31   32 1
    58   31   55 1
    59   31   56 1
    60   32   33 1
    61   32   57 1
    62   32   58 1
    63   33   59 1
    64   33   60 1
@<TRIPOS>MOLECULE
ZINC01832454
   57    61     0     0     0
SMALL
USER_CHARGES

@<TRIPOS>ATOM
      1 C1          1.3094    0.9739   -0.5850 C.3       1 <0>        -0.1159
      2 C2          0.5381   -0.3037   -0.3757 C.ar      1 <0>        -0.0663
      3 C3         -0.2481   -0.8107   -1.3944 C.ar      1 <0>        -0.1329
      4 C4         -0.9569   -1.9829   -1.2065 C.ar      1 <0>        -0.0959
      5 C5         -0.8818   -2.6514   -0.0001 C.ar      1 <0>        -0.1257
      6 C6         -0.0934   -2.1450    1.0246 C.ar      1 <0>         0.1468
      7 C7          0.6216   -0.9700    0.8309 C.ar      1 <0>        -0.1445
      8 N1         -0.0155   -2.8195    2.2481 N.am      1 <0>        -0.6697
      9 C8         -0.0896   -4.1648    2.2818 C.2       1 <0>         0.4940
     10 O1         -0.1270   -4.7962    1.2470 O.2       1 <0>        -0.4980
     11 C9         -0.1261   -4.8844    3.6054 C.3       1 <0>         0.0967
     12 N2         -0.2063   -6.3288    3.3738 N.am      1 <0>        -0.5293
     13 C10        -1.3958   -7.0373    3.2473 C.ar      1 <0>         0.1757
     14 C11        -2.7239   -6.6298    3.2981 C.ar      1 <0>        -0.1439
     15 C12        -3.7387   -7.5524    3.1392 C.ar      1 <0>        -0.0531
     16 C13        -3.4499   -8.8905    2.9279 C.ar      1 <0>        -0.1487
     17 C14        -2.1379   -9.3152    2.8742 C.ar      1 <0>        -0.0331
     18 C15        -1.1069   -8.3929    3.0332 C.ar      1 <0>        -0.1346
     19 C16         0.3661   -8.5110    3.0304 C.2       1 <0>         0.0351
     20 C17         1.1173   -9.6568    2.8543 C.2       1 <0>        -0.1522
     21 C18         0.6835  -11.0256    2.4623 C.2       1 <0>         0.5501
     22 O2         -0.4815  -11.2897    2.2386 O.2       1 <0>        -0.4190
     23 N3          1.6362  -11.9384    2.3703 N.am      1 <0>        -0.5161
     24 C19         2.9269  -11.6401    2.6190 C.2       1 <0>         0.2632
     25 S1          4.2873  -12.6773    2.5519 S.2       1 <0>        -0.3155
     26 S2          2.8796   -9.9025    3.0268 S.3       1 <0>         0.1245
     27 C20         1.2798  -13.3073    1.9893 C.3       1 <0>         0.0863
     28 C21         1.3450  -13.4464    0.4671 C.3       1 <0>         0.0640
     29 H1          2.3486  -13.2161    0.1094 H         1 <0>         0.0831
     30 C22         0.9373  -14.8789    0.0399 C.3       1 <0>        -0.1440
     31 C23         0.4511  -14.6262   -1.4132 C.3       1 <0>        -0.1541
     32 C24        -0.1769  -13.2198   -1.3086 C.3       1 <0>         0.0515
     33 O3          0.3830  -12.5794   -0.1545 O.3       1 <0>        -0.3729
     34 C25         0.8606   -7.1367    3.2510 C.2       1 <0>         0.5632
     35 O4          2.0272   -6.7967    3.3123 O.2       1 <0>        -0.4577
     36 H2          2.2946    0.7415   -0.9891 H         1 <0>         0.0727
     37 H3          0.7710    1.6128   -1.2850 H         1 <0>         0.0692
     38 H4          1.4204    1.4915    0.3678 H         1 <0>         0.0673
     39 H5         -0.3087   -0.2898   -2.3385 H         1 <0>         0.1244
     40 H6         -1.5702   -2.3760   -2.0038 H         1 <0>         0.1267
     41 H7         -1.4360   -3.5667    0.1462 H         1 <0>         0.1320
     42 H8          1.2389   -0.5758    1.6245 H         1 <0>         0.1261
     43 H9          0.0918   -2.3188    3.0719 H         1 <0>         0.4132
     44 H10         0.7792   -4.6564    4.1680 H         1 <0>         0.1310
     45 H11        -0.9981   -4.5584    4.1723 H         1 <0>         0.1292
     46 H12        -2.9625   -5.5894    3.4626 H         1 <0>         0.1305
     47 H13        -4.7679   -7.2276    3.1803 H         1 <0>         0.1379
     48 H14        -4.2526   -9.6026    2.8054 H         1 <0>         0.1367
     49 H15        -1.9118  -10.3583    2.7095 H         1 <0>         0.1656
     50 H16         1.9793  -14.0060    2.4483 H         1 <0>         0.1277
     51 H17         0.2687  -13.5281    2.3314 H         1 <0>         0.1140
     52 H18         1.7942  -15.5525    0.0559 H         1 <0>         0.0925
     53 H19         0.1289  -15.2599    0.6640 H         1 <0>         0.0846
     54 H20         1.2906  -14.6254   -2.1085 H         1 <0>         0.0794
     55 H21        -0.2959  -15.3638   -1.7062 H         1 <0>         0.0868
     56 H22         0.0598  -12.6417   -2.2018 H         1 <0>         0.0691
     57 H23        -1.2579  -13.3049   -1.1975 H         1 <0>         0.0724
@<TRIPOS>BOND
     1    1    2 1
     2    1   36 1
     3    1   37 1
     4    1   38 1
     5    2    7 ar
     6    2    3 ar
     7    3    4 ar
     8    3   39 1
     9    4    5 ar
    10    4   40 1
    11    5    6 ar
    12    5   41 1
    13    6    7 ar
    14    6    8 1
    15    7   42 1
    16    8    9 am
    17    8   43 1
    18    9   10 2
    19    9   11 1
    20   11   12 1
    21   11   44 1
    22   11   45 1
    23   12   34 am
    24   12   13 1
    25   13   18 ar
    26   13   14 ar
    27   14   15 ar
    28   14   46 1
    29   15   16 ar
    30   15   47 1
    31   16   17 ar
    32   16   48 1
    33   17   18 ar
    34   17   49 1
    35   18   19 1
    36   19   20 2
    37   19   34 1
    38   20   26 1
    39   20   21 1
    40   21   22 2
    41   21   23 am
    42   23   24 1
    43   23   27 1
    44   24   25 2
    45   24   26 1
    46   27   28 1
    47   27   50 1
    48   27   51 1
    49   28   29 1
    50   28   33 1
    51   28   30 1
    52   30   31 1
    53   30   52 1
    54   30   53 1
    55   31   32 1
    56   31   54 1
    57   31   55 1
    58   32   33 1
    59   32   56 1
    60   32   57 1
    61   34   35 2
@<TRIPOS>MOLECULE
ZINC41074297
   53    59     0     0     0
SMALL
USER_CHARGES

@<TRIPOS>ATOM
      1 C1         -2.0192    0.0819   -1.4847 C.ar      1 <0>        -0.1065
      2 C2         -1.0278    1.0145   -1.7330 C.ar      1 <0>        -0.1204
      3 C3          0.2985    0.6348   -1.7235 C.ar      1 <0>        -0.0806
      4 C4          0.6391   -0.6931   -1.4627 C.ar      1 <0>        -0.0199
      5 C5         -0.3657   -1.6289   -1.2130 C.ar      1 <0>        -0.0940
      6 C6         -1.6882   -1.2363   -1.2254 C.ar      1 <0>        -0.1163
      7 C7          2.0597   -1.1074   -1.4515 C.2       1 <0>         0.1446
      8 C8          2.6343   -2.0789   -0.6194 C.2       1 <0>         0.0241
      9 N1          3.9969   -2.1407   -0.9548 N.pl3     1 <0>        -0.2955
     10 C9          4.1585   -1.2231   -1.9468 C.2       1 <0>         0.1713
     11 N2          3.0277   -0.6294   -2.2349 N.2       1 <0>        -0.4176
     12 S1          5.8939   -1.3609   -2.3131 S.3       1 <0>         0.1174
     13 C10         6.2860   -2.6308   -1.1205 C.2       1 <0>         0.1758
     14 N3          5.1319   -2.8435   -0.5626 N.2       1 <0>        -0.2578
     15 C11         7.6126   -3.2860   -0.8345 C.3       1 <0>        -0.0849
     16 C12         7.8319   -3.8544    0.5690 C.3       1 <0>        -0.1422
     17 C13         8.5556   -2.5766    0.1394 C.3       1 <0>        -0.1488
     18 C14         1.9795   -2.8372    0.3530 C.2       1 <0>         0.0953
     19 C15         2.1352   -4.2206    0.3787 C.2       1 <0>        -0.2029
     20 C16         1.4523   -5.0653    1.3914 C.2       1 <0>         0.4381
     21 N4          0.2707   -4.7854    1.8813 N.2       1 <0>        -0.6414
     22 N5          2.2008   -6.2002    1.7742 N.pl3     1 <0>        -0.5250
     23 C17         2.0492   -6.8883    2.9493 C.2       1 <0>         0.1218
     24 C18         2.7835   -7.9969    3.1854 C.2       1 <0>        -0.1893
     25 S2          3.7664   -8.1169    1.6973 S.3       1 <0>         0.1431
     26 C19         3.1569   -6.6597    0.8913 C.2       1 <0>         0.4022
     27 N6          3.5192   -6.1132   -0.2421 N.2       1 <0>        -0.5438
     28 C20         2.9839   -4.9263   -0.6044 C.2       1 <0>         0.5524
     29 O1          3.1973   -4.4483   -1.7078 O.2       1 <0>        -0.4442
     30 C21         1.0791   -6.4162    3.9610 C.ar      1 <0>        -0.0803
     31 C22         0.1398   -7.2986    4.4965 C.ar      1 <0>        -0.0861
     32 C23        -0.7620   -6.8521    5.4402 C.ar      1 <0>        -0.1154
     33 C24        -0.7365   -5.5327    5.8560 C.ar      1 <0>        -0.0957
     34 C25         0.1919   -4.6527    5.3287 C.ar      1 <0>        -0.1100
     35 C26         1.1030   -5.0880    4.3885 C.ar      1 <0>        -0.0935
     36 H1         -3.0558    0.3851   -1.4888 H         1 <0>         0.1259
     37 H2         -1.2927    2.0418   -1.9350 H         1 <0>         0.1285
     38 H3          1.0715    1.3637   -1.9178 H         1 <0>         0.1305
     39 H4         -0.1086   -2.6581   -1.0109 H         1 <0>         0.1238
     40 H5         -2.4667   -1.9594   -1.0320 H         1 <0>         0.1278
     41 H6          8.0623   -3.8215   -1.6706 H         1 <0>         0.1540
     42 H7          7.0166   -3.7543    1.2855 H         1 <0>         0.1033
     43 H8          8.4259   -4.7641    0.6564 H         1 <0>         0.1164
     44 H9          9.6257   -2.6457   -0.0558 H         1 <0>         0.1191
     45 H10         8.2164   -1.6360    0.5732 H         1 <0>         0.1032
     46 H11         1.3523   -2.3507    1.0853 H         1 <0>         0.1642
     47 H12        -0.1707   -5.4152    2.4724 H         1 <0>         0.3596
     48 H13         2.7782   -8.6439    4.0502 H         1 <0>         0.2179
     49 H14         0.1187   -8.3286    4.1725 H         1 <0>         0.1340
     50 H15        -1.4896   -7.5338    5.8551 H         1 <0>         0.1343
     51 H16        -1.4446   -5.1881    6.5950 H         1 <0>         0.1315
     52 H17         0.2061   -3.6239    5.6569 H         1 <0>         0.1316
     53 H18         1.8303   -4.4013    3.9813 H         1 <0>         0.1205
@<TRIPOS>BOND
     1    1    6 ar
     2    1    2 ar
     3    1   36 1
     4    2    3 ar
     5    2   37 1
     6    3    4 ar
     7    3   38 1
     8    4    5 ar
     9    4    7 1
    10    5    6 ar
    11    5   39 1
    12    6   40 1
    13    7   11 1
    14    7    8 2
    15    8    9 1
    16    8   18 1
    17    9   14 1
    18    9   10 1
    19   10   11 2
    20   10   12 1
    21   12   13 1
    22   13   14 2
    23   13   15 1
    24   15   17 1
    25   15   16 1
    26   15   41 1
    27   16   17 1
    28   16   42 1
    29   16   43 1
    30   17   44 1
    31   17   45 1
    32   18   19 2
    33   18   46 1
    34   19   28 1
    35   19   20 1
    36   20   21 2
    37   20   22 1
    38   21   47 1
    39   22   26 1
    40   22   23 1
    41   23   24 2
    42   23   30 1
    43   24   25 1
    44   24   48 1
    45   25   26 1
    46   26   27 2
    47   27   28 1
    48   28   29 2
    49   30   35 ar
    50   30   31 ar
    51   31   32 ar
    52   31   49 1
    53   32   33 ar
    54   32   50 1
    55   33   34 ar
    56   33   51 1
    57   34   35 ar
    58   34   52 1
    59   35   53 1
@<TRIPOS>MOLECULE
ZINC03038290
   50    52     0     0     0
SMALL
USER_CHARGES

@<TRIPOS>ATOM
      1 C1         -1.3325    1.2431   -0.9862 C.3       1 <0>         0.0214
      2 O1         -1.7140   -0.0243   -1.5249 O.3       1 <0>        -0.3015
      3 C2         -0.9236   -0.5428   -2.5026 C.ar      1 <0>         0.1037
      4 C3          0.1938    0.1499   -2.9271 C.ar      1 <0>        -0.1408
      5 C4          1.0049   -0.3866   -3.9327 C.ar      1 <0>        -0.1022
      6 C5          0.6803   -1.6218   -4.5032 C.ar      1 <0>        -0.0932
      7 C6         -0.4364   -2.3065   -4.0739 C.ar      1 <0>        -0.1007
      8 C7         -1.2379   -1.7755   -3.0719 C.ar      1 <0>         0.1320
      9 O2         -2.3343   -2.4574   -2.6487 O.3       1 <0>        -0.4720
     10 I1         -0.9214   -4.1560   -4.9301 I         1 <0>        -0.0066
     11 C8          2.1958    0.3466   -4.3892 C.2       1 <0>         0.2270
     12 N1          3.0566   -0.2344   -5.1769 N.2       1 <0>        -0.4750
     13 C9          3.1058   -1.6002   -5.2480 C.ar      1 <0>         0.1188
     14 C10         3.2406   -2.3576   -4.0821 C.ar      1 <0>        -0.1530
     15 C11         3.2898   -3.7341   -4.1558 C.ar      1 <0>        -0.0836
     16 C12         3.2054   -4.3692   -5.3860 C.ar      1 <0>         0.0349
     17 C13         3.0701   -3.6202   -6.5526 C.ar      1 <0>         0.1210
     18 C14         3.0155   -2.2404   -6.4862 C.ar      1 <0>        -0.1476
     19 O3          2.9851   -4.2478   -7.7562 O.3       1 <0>        -0.3202
     20 C15         2.0797   -5.3498   -7.8484 C.3       1 <0>         0.0143
     21 C16         1.9245   -5.7614   -9.3136 C.3       1 <0>         0.0583
     22 O4          2.4128   -7.0928   -9.4890 O.3       1 <0>        -0.3746
     23 C17         3.7037   -7.3186   -8.9193 C.3       1 <0>         0.0253
     24 C18         3.6139   -8.4393   -7.8817 C.3       1 <0>         0.0392
     25 O5          4.7267   -8.3529   -6.9893 O.3       1 <0>        -0.3717
     26 C19         4.3966   -7.8423   -5.6961 C.3       1 <0>         0.0575
     27 C20         4.5315   -6.3183   -5.6998 C.3       1 <0>         0.0254
     28 O6          3.2543   -5.7265   -5.4538 O.3       1 <0>        -0.3286
     29 H1         -0.3371    1.1671   -0.5486 H         1 <0>         0.0595
     30 H2         -1.3238    1.9882   -1.7817 H         1 <0>         0.0596
     31 H3         -2.0457    1.5407   -0.2175 H         1 <0>         0.1065
     32 H4          0.4403    1.1034   -2.4839 H         1 <0>         0.1486
     33 H5          1.3041   -2.0387   -5.2800 H         1 <0>         0.1570
     34 H6         -3.1413   -2.2472   -3.1382 H         1 <0>         0.3941
     35 H7          2.3568    1.3662   -4.0717 H         1 <0>         0.1781
     36 H8          3.3067   -1.8654   -3.1230 H         1 <0>         0.1319
     37 H9          3.3947   -4.3186   -3.2537 H         1 <0>         0.1380
     38 H10         2.9075   -1.6588   -7.3897 H         1 <0>         0.1424
     39 H11         2.4705   -6.1900   -7.2744 H         1 <0>         0.0920
     40 H12         1.1089   -5.0569   -7.4485 H         1 <0>         0.0689
     41 H13         0.8716   -5.7209   -9.5928 H         1 <0>         0.1104
     42 H14         2.4942   -5.0794   -9.9448 H         1 <0>         0.0713
     43 H15         4.4024   -7.6059   -9.7050 H         1 <0>         0.0816
     44 H16         4.0534   -6.4051   -8.4382 H         1 <0>         0.0722
     45 H17         2.6870   -8.3385   -7.3172 H         1 <0>         0.0671
     46 H18         3.6280   -9.4048   -8.3875 H         1 <0>         0.0923
     47 H19         3.3708   -8.1157   -5.4486 H         1 <0>         0.0757
     48 H20         5.0743   -8.2653   -4.9546 H         1 <0>         0.1097
     49 H21         5.2295   -6.0134   -4.9201 H         1 <0>         0.0670
     50 H22         4.9038   -5.9888   -6.6698 H         1 <0>         0.0685
@<TRIPOS>BOND
     1    1    2 1
     2    1   29 1
     3    1   30 1
     4    1   31 1
     5    2    3 1
     6    3    8 ar
     7    3    4 ar
     8    4    5 ar
     9    4   32 1
    10    5    6 ar
    11    5   11 1
    12    6    7 ar
    13    6   33 1
    14    7    8 ar
    15    7   10 1
    16    8    9 1
    17    9   34 1
    18   11   12 2
    19   11   35 1
    20   12   13 1
    21   13   18 ar
    22   13   14 ar
    23   14   15 ar
    24   14   36 1
    25   15   16 ar
    26   15   37 1
    27   16   28 1
    28   16   17 ar
    29   17   18 ar
    30   17   19 1
    31   18   38 1
    32   19   20 1
    33   20   21 1
    34   20   39 1
    35   20   40 1
    36   21   22 1
    37   21   41 1
    38   21   42 1
    39   22   23 1
    40   23   24 1
    41   23   43 1
    42   23   44 1
    43   24   25 1
    44   24   45 1
    45   24   46 1
    46   25   26 1
    47   26   27 1
    48   26   47 1
    49   26   48 1
    50   27   28 1
    51   27   49 1
    52   27   50 1
@<TRIPOS>MOLECULE
ZINC09875881
   48    51     0     0     0
SMALL
USER_CHARGES
2-(1,3-dimethyl-2,6-dioxo-purin-7-yl)-N-[(4-fluorophenyl)-(2-thienyl)methyl]-acetamide
@<TRIPOS>ATOM
      1 C1         -4.1487    2.4041    2.1889 C.3       1 <0>         0.0891
      2 N1         -2.7007    2.1952    2.2645 N.am      1 <0>        -0.5105
      3 C2         -2.0269    2.4437    3.4493 C.2       1 <0>         0.3207
      4 C3         -0.6537    2.2384    3.4955 C.2       1 <0>        -0.1406
      5 C4          0.0130    1.7833    2.3376 C.2       1 <0>         0.5948
      6 O1          1.2164    1.5962    2.3529 O.2       1 <0>        -0.5105
      7 N2         -0.6984    1.5583    1.2133 N.am      1 <0>        -0.5514
      8 C5         -2.0260    1.7663    1.1811 C.2       1 <0>         0.7072
      9 O2         -2.6337    1.5576    0.1487 O.2       1 <0>        -0.5326
     10 C6         -0.0127    1.0858    0.0080 C.3       1 <0>         0.0845
     11 N3         -0.2578    2.5607    4.7782 N.pl3     1 <0>        -0.4002
     12 C7         -1.3638    2.9387    5.4483 C.2       1 <0>         0.2804
     13 N4         -2.4046    2.8673    4.6582 N.2       1 <0>        -0.4936
     14 C8          1.1060    2.5021    5.3100 C.3       1 <0>         0.0855
     15 C9          1.8295    3.7821    4.9796 C.2       1 <0>         0.5086
     16 O3          1.2618    4.6572    4.3608 O.2       1 <0>        -0.5068
     17 N5          3.1074    3.9544    5.3717 N.am      1 <0>        -0.7202
     18 C10         3.8107    5.1988    5.0505 C.3       1 <0>         0.2834
     19 H1          3.1095    6.0325    5.0878 H         1 <0>         0.1201
     20 C11         4.9140    5.4251    6.0518 C.ar      1 <0>        -0.1069
     21 C12         5.6739    4.3587    6.4950 C.ar      1 <0>        -0.0788
     22 C13         6.6896    4.5659    7.4089 C.ar      1 <0>        -0.1468
     23 C14         6.9383    5.8403    7.8896 C.ar      1 <0>         0.1081
     24 C15         6.1728    6.9068    7.4493 C.ar      1 <0>        -0.1477
     25 C16         5.1616    6.6981    6.5307 C.ar      1 <0>        -0.0685
     26 F1          7.9268    6.0431    8.7879 F         1 <0>        -0.1353
     27 C17         4.4003    5.0998    3.6671 C.2       1 <0>        -0.1624
     28 C18         4.4585    6.0422    2.6946 C.2       1 <0>        -0.1370
     29 C19         5.0574    5.7259    1.4897 C.2       1 <0>        -0.1581
     30 C20         5.5594    4.4794    1.3124 C.2       1 <0>        -0.1683
     31 S1          5.1965    3.7085    2.8812 S.3       1 <0>         0.0545
     32 H2         -4.3522    3.4287    1.8776 H         1 <0>         0.0733
     33 H3         -4.5784    1.7122    1.4645 H         1 <0>         0.0935
     34 H4         -4.5930    2.2269    3.1684 H         1 <0>         0.0926
     35 H5          0.0021   -0.0041    0.0020 H         1 <0>         0.0768
     36 H6          1.0099    1.4631    0.0003 H         1 <0>         0.0938
     37 H7         -0.5399    1.4469   -0.8751 H         1 <0>         0.0960
     38 H8         -1.3878    3.2533    6.4812 H         1 <0>         0.2307
     39 H9          1.0689    2.3746    6.3919 H         1 <0>         0.1376
     40 H10         1.6345    1.6602    4.8628 H         1 <0>         0.1364
     41 H11         3.5614    3.2546    5.8666 H         1 <0>         0.4048
     42 H12         5.4764    3.3639    6.1237 H         1 <0>         0.1307
     43 H13         7.2863    3.7334    7.7514 H         1 <0>         0.1409
     44 H14         6.3656    7.9012    7.8238 H         1 <0>         0.1413
     45 H15         4.5644    7.5297    6.1871 H         1 <0>         0.1377
     46 H16         4.0456    7.0264    2.8597 H         1 <0>         0.1323
     47 H17         5.1204    6.4596    0.6996 H         1 <0>         0.1349
     48 H18         6.0510    4.0609    0.4466 H         1 <0>         0.1862
@<TRIPOS>BOND
     1    1    2 1
     2    1   32 1
     3    1   33 1
     4    1   34 1
     5    2    8 am
     6    2    3 1
     7    3   13 1
     8    3    4 2
     9    4    5 1
    10    4   11 1
    11    5    6 2
    12    5    7 am
    13    7    8 am
    14    7   10 1
    15    8    9 2
    16   10   35 1
    17   10   36 1
    18   10   37 1
    19   11   12 1
    20   11   14 1
    21   12   13 2
    22   12   38 1
    23   14   15 1
    24   14   39 1
    25   14   40 1
    26   15   16 2
    27   15   17 am
    28   17   18 1
    29   17   41 1
    30   18   19 1
    31   18   20 1
    32   18   27 1
    33   20   25 ar
    34   20   21 ar
    35   21   22 ar
    36   21   42 1
    37   22   23 ar
    38   22   43 1
    39   23   24 ar
    40   23   26 1
    41   24   25 ar
    42   24   44 1
    43   25   45 1
    44   27   31 1
    45   27   28 2
    46   28   29 1
    47   28   46 1
    48   29   30 2
    49   29   47 1
    50   30   31 1
    51   30   48 1
@<TRIPOS>MOLECULE
ZINC16701735
   49    51     0     0     0
SMALL
USER_CHARGES
N-(4,5-dimethylthiazol-2-yl)-4-(4,4-dimethyl-1,1,3-trioxo-1,2-thiazolidin-2-yl)-2-methyl-benzenesulfonamide
@<TRIPOS>ATOM
      1 C1          3.1174    1.2657    0.8663 C.3       1 <0>        -0.1449
      2 C2          3.9976    0.5000    1.8202 C.ar      1 <0>         0.0415
      3 C3          4.3102    1.0379    3.0535 C.ar      1 <0>        -0.1437
      4 C4          5.1213    0.3318    3.9318 C.ar      1 <0>         0.2289
      5 C5          5.6159   -0.9138    3.5669 C.ar      1 <0>        -0.1744
      6 C6          5.2950   -1.4485    2.3348 C.ar      1 <0>         0.0387
      7 C7          4.4911   -0.7403    1.4601 C.ar      1 <0>        -0.6797
      8 S1          4.0891   -1.4234   -0.1135 S.o2      1 <0>         2.6920
      9 O1          2.6808   -1.3031   -0.2607 O.2       1 <0>        -0.9338
     10 O2          4.7597   -2.6734   -0.1969 O.2       1 <0>        -0.9213
     11 N1          4.7704   -0.4433   -1.2613 N.pl3     1 <0>        -0.9923
     12 C8          6.1492   -0.3289   -1.3450 C.2       1 <0>         0.3106
     13 N2          7.0731   -0.8415   -0.5549 N.2       1 <0>        -0.5320
     14 C9          8.3568   -0.6331   -0.7805 C.2       1 <0>         0.0867
     15 C10         8.7107    0.1231   -1.8469 C.2       1 <0>        -0.1967
     16 S2          7.1040    0.5252   -2.5174 S.3       1 <0>         0.0757
     17 C11        10.0816    0.5126   -2.3367 C.3       1 <0>        -0.0591
     18 C12         9.4047   -1.2234    0.1275 C.3       1 <0>        -0.0830
     19 N3          5.4403    0.8741    5.1816 N.am      1 <0>        -0.8756
     20 C13         5.4624    2.1786    5.4936 C.2       1 <0>         0.4965
     21 O3          5.1612    3.0181    4.6717 O.2       1 <0>        -0.4526
     22 C14         5.8632    2.5750    6.8824 C.3       1 <0>        -0.0792
     23 C15         5.7241    1.3406    7.8122 C.3       1 <0>        -0.5726
     24 S3          5.8687    0.0098    6.5502 S.o2      1 <0>         2.5319
     25 O4          4.8504   -0.9661    6.7230 O.2       1 <0>        -0.9119
     26 O5          7.2265   -0.3634    6.3598 O.2       1 <0>        -0.9113
     27 C16         4.9557    3.7008    7.3824 C.3       1 <0>        -0.1302
     28 C17         7.3171    3.0515    6.8736 C.3       1 <0>        -0.1535
     29 H1          2.0859    0.9306    0.9751 H         1 <0>         0.1064
     30 H2          3.1790    2.3307    1.0903 H         1 <0>         0.0902
     31 H3          3.4506    1.0897   -0.1565 H         1 <0>         0.0627
     32 H4          3.9245    2.0069    3.3341 H         1 <0>         0.1546
     33 H5          6.2467   -1.4657    4.2480 H         1 <0>         0.1366
     34 H6          5.6752   -2.4191    2.0524 H         1 <0>         0.1586
     35 H7          4.2046    0.0508   -1.8750 H         1 <0>         0.4424
     36 H8          9.9866    1.1270   -3.2319 H         1 <0>         0.0740
     37 H9         10.5975    1.0782   -1.5608 H         1 <0>         0.0824
     38 H10        10.6523   -0.3859   -2.5716 H         1 <0>         0.0836
     39 H11         9.6239   -0.5226    0.9331 H         1 <0>         0.0760
     40 H12         9.0351   -2.1580    0.5494 H         1 <0>         0.0785
     41 H13        10.3130   -1.4164   -0.4433 H         1 <0>         0.0774
     42 H14         4.7520    1.3195    8.3049 H         1 <0>         0.1631
     43 H15         6.5363    1.2927    8.5376 H         1 <0>         0.1687
     44 H16         5.2449    3.9773    8.3963 H         1 <0>         0.0858
     45 H17         5.0558    4.5662    6.7273 H         1 <0>         0.0827
     46 H18         3.9201    3.3609    7.3799 H         1 <0>         0.0693
     47 H19         7.9599    2.2501    6.5094 H         1 <0>         0.0743
     48 H20         7.4113    3.9184    6.2197 H         1 <0>         0.0852
     49 H21         7.6158    3.3254    7.8855 H         1 <0>         0.0930
@<TRIPOS>BOND
     1    1    2 1
     2    1   29 1
     3    1   30 1
     4    1   31 1
     5    2    7 ar
     6    2    3 ar
     7    3    4 ar
     8    3   32 1
     9    4    5 ar
    10    4   19 1
    11    5    6 ar
    12    5   33 1
    13    6    7 ar
    14    6   34 1
    15    7    8 1
    16    8    9 2
    17    8   10 2
    18    8   11 1
    19   11   12 1
    20   11   35 1
    21   12   16 1
    22   12   13 2
    23   13   14 1
    24   14   15 2
    25   14   18 1
    26   15   16 1
    27   15   17 1
    28   17   36 1
    29   17   37 1
    30   17   38 1
    31   18   39 1
    32   18   40 1
    33   18   41 1
    34   19   24 1
    35   19   20 am
    36   20   21 2
    37   20   22 1
    38   22   23 1
    39   22   27 1
    40   22   28 1
    41   23   24 1
    42   23   42 1
    43   23   43 1
    44   24   25 2
    45   24   26 2
    46   27   44 1
    47   27   45 1
    48   27   46 1
    49   28   47 1
    50   28   48 1
    51   28   49 1
@<TRIPOS>MOLECULE
ZINC24147530
   61    65     0     0     0
SMALL
USER_CHARGES
(3R)-1'-(2-dimethylaminoethyl)-3'-hydroxy-1-methyl-4'-[(2S)-2-methyl2,3-dihydrobenzofuran-5-carbonyl]spiro[indoline-3,5'-pyrrole]-2,2'-dione
@<TRIPOS>ATOM
      1 C1         -7.0411    3.5962   -7.6283 C.3       1 <0>        -0.1805
      2 C2         -6.6966    2.2652   -6.9570 C.3       1 <0>         0.0717
      3 H1         -7.1546    1.4703   -7.5639 H         1 <0>         0.1165
      4 C3         -5.1697    2.1386   -6.7428 C.3       1 <0>        -0.0970
      5 C4         -5.0059    2.6762   -5.3340 C.ar      1 <0>        -0.1924
      6 C5         -3.9047    3.1042   -4.6352 C.ar      1 <0>        -0.0192
      7 C6         -4.0488    3.5648   -3.3221 C.ar      1 <0>        -0.1811
      8 C7         -5.3197    3.5944   -2.7393 C.ar      1 <0>        -0.0027
      9 C8         -6.4158    3.1662   -3.4491 C.ar      1 <0>        -0.1566
     10 C9         -6.2729    2.6980   -4.7568 C.ar      1 <0>         0.1306
     11 O1         -7.2118    2.2188   -5.6158 O.3       1 <0>        -0.3002
     12 C10        -2.8700    4.0215   -2.5601 C.2       1 <0>         0.5174
     13 O2         -1.7835    4.0913   -3.1040 O.2       1 <0>        -0.4740
     14 C11        -3.0079    4.3910   -1.1478 C.2       1 <0>        -0.4857
     15 C12        -3.5411    5.5366   -0.6571 C.2       1 <0>         0.2671
     16 C13        -3.4854    5.5035    0.8204 C.2       1 <0>         0.5230
     17 O3         -3.8866    6.3853    1.5536 O.2       1 <0>        -0.5117
     18 N1         -2.9243    4.3497    1.2329 N.am      1 <0>        -0.5957
     19 C14        -2.5858    3.5736    0.0424 C.3       1 <0>         0.2740
     20 C15        -1.1154    3.2547   -0.0063 C.ar      1 <0>        -0.1323
     21 C16         0.0192    4.0343   -0.0363 C.ar      1 <0>        -0.0464
     22 C17         1.2671    3.4381   -0.0787 C.ar      1 <0>        -0.1460
     23 C18         1.3708    2.0590   -0.0907 C.ar      1 <0>        -0.0829
     24 C19         0.2366    1.2746   -0.0611 C.ar      1 <0>        -0.1436
     25 C20        -1.0238    1.8670   -0.0242 C.ar      1 <0>         0.1478
     26 N2         -2.2985    1.2986    0.0152 N.am      1 <0>        -0.5605
     27 C21        -3.2693    2.2300    0.0516 C.2       1 <0>         0.5235
     28 O4         -4.4647    2.0273    0.0856 O.2       1 <0>        -0.4695
     29 C22        -2.5502   -0.1446    0.0110 C.3       1 <0>         0.0722
     30 C23        -2.6958    3.9467    2.6228 C.3       1 <0>         0.1155
     31 C24        -1.3144    4.4267    3.0724 C.3       1 <0>        -0.0372
     32 N3         -1.0852    4.0226    4.4660 N.4       1 <0>        -0.3970
     33 C25         0.3114    4.2538    4.8584 C.3       1 <0>        -0.0443
     34 C26        -2.0088    4.7161    5.3739 C.3       1 <0>        -0.0518
     35 O5         -4.0448    6.5487   -1.4004 O.3       1 <0>        -0.6281
     36 H2         -6.6366    3.6065   -8.6512 H         1 <0>         0.0757
     37 H3         -6.6005    4.4227   -7.0514 H         1 <0>         0.0639
     38 H4         -8.1339    3.7163   -7.6649 H         1 <0>         0.0683
     39 H5         -4.8720    1.0841   -6.8399 H         1 <0>         0.0882
     40 H6         -4.6424    2.7395   -7.4983 H         1 <0>         0.0917
     41 H7         -2.9285    3.0816   -5.0967 H         1 <0>         0.1300
     42 H8         -5.4401    3.9552   -1.7285 H         1 <0>         0.1406
     43 H9         -7.3942    3.1923   -2.9925 H         1 <0>         0.1292
     44 H10        -0.0650    5.1110   -0.0271 H         1 <0>         0.1268
     45 H11         2.1580    4.0482   -0.1028 H         1 <0>         0.1286
     46 H12         2.3450    1.5939   -0.1230 H         1 <0>         0.1293
     47 H13         0.3258    0.1984   -0.0710 H         1 <0>         0.1241
     48 H14        -3.6342   -0.3278    0.0472 H         1 <0>         0.0921
     49 H15        -2.0713   -0.6029    0.8889 H         1 <0>         0.0690
     50 H16        -2.1340   -0.5867   -0.9062 H         1 <0>         0.0715
     51 H17        -3.4672    4.3952    3.2661 H         1 <0>         0.1053
     52 H18        -2.7461    2.8505    2.6998 H         1 <0>         0.0909
     53 H19        -0.5431    3.9782    2.4290 H         1 <0>         0.1373
     54 H20        -1.2641    5.5229    2.9955 H         1 <0>         0.1352
     55 H21         0.4547    3.9432    5.9039 H         1 <0>         0.1233
     56 H22         0.5483    5.3233    4.7578 H         1 <0>         0.1191
     57 H23         0.9770    3.6680    4.2073 H         1 <0>         0.1237
     58 H24        -1.8157    4.3957    6.4083 H         1 <0>         0.1240
     59 H25        -3.0455    4.4694    5.1010 H         1 <0>         0.1249
     60 H26        -1.8567    5.8025    5.2921 H         1 <0>         0.1217
     61 H27        -1.2832    2.9432    4.5418 H         1 <0>         0.4426
@<TRIPOS>BOND
     1    1    2 1
     2    1   36 1
     3    1   37 1
     4    1   38 1
     5    2    3 1
     6    2   11 1
     7    2    4 1
     8    4    5 1
     9    4   39 1
    10    4   40 1
    11    5   10 ar
    12    5    6 ar
    13    6    7 ar
    14    6   41 1
    15    7    8 ar
    16    7   12 1
    17    8    9 ar
    18    8   42 1
    19    9   10 ar
    20    9   43 1
    21   10   11 1
    22   12   13 2
    23   12   14 1
    24   14   19 1
    25   14   15 2
    26   15   16 1
    27   15   35 1
    28   16   17 2
    29   16   18 am
    30   18   19 1
    31   18   30 1
    32   19   27 1
    33   19   20 1
    34   20   25 ar
    35   20   21 ar
    36   21   22 ar
    37   21   44 1
    38   22   23 ar
    39   22   45 1
    40   23   24 ar
    41   23   46 1
    42   24   25 ar
    43   24   47 1
    44   25   26 1
    45   26   27 am
    46   26   29 1
    47   27   28 2
    48   29   48 1
    49   29   49 1
    50   29   50 1
    51   30   31 1
    52   30   51 1
    53   30   52 1
    54   31   32 1
    55   31   53 1
    56   31   54 1
    57   32   33 1
    58   32   34 1
    59   32   61 1
    60   33   55 1
    61   33   56 1
    62   33   57 1
    63   34   58 1
    64   34   59 1
    65   34   60 1
@<TRIPOS>MOLECULE
ZINC38898628
   43    46     0     0     0
SMALL
USER_CHARGES

@<TRIPOS>ATOM
      1 C1         -0.0178    1.4608    0.0101 C.3       1 <0>         0.1027
      2 N1          0.0021   -0.0041    0.0020 N.am      1 <0>        -0.5971
      3 C2         -1.2635   -0.7542    0.0039 C.3       1 <0>         0.2793
      4 H1         -1.8894   -0.4232    0.8327 H         1 <0>         0.1365
      5 C3         -1.1368   -2.3011    0.0216 C.3       1 <0>         0.0889
      6 H2         -1.7118   -2.7173    0.8488 H         1 <0>         0.1470
      7 C4          0.2768   -2.8449    0.0423 C.2       1 <0>         0.5246
      8 O1          0.4752   -4.0409    0.0503 O.2       1 <0>        -0.4762
      9 N2          1.3082   -1.9830    0.0512 N.am      1 <0>        -0.5609
     10 C5          1.1734   -0.6560   -0.0127 C.2       1 <0>         0.7025
     11 O2          2.1886    0.0122   -0.0185 O.2       1 <0>        -0.5512
     12 C6          2.6650   -2.5354    0.0709 C.3       1 <0>         0.0743
     13 N3         -1.7357   -2.6947   -1.2638 N.pl3     1 <0>        -0.6041
     14 C7         -2.1453   -1.5687   -1.9132 C.2       1 <0>         0.3834
     15 N4         -1.9284   -0.4606   -1.2725 N.2       1 <0>        -0.5257
     16 Br1        -2.9787   -1.6138   -3.6100 Br        1 <0>         0.0663
     17 C8         -1.8692   -4.0662   -1.7614 C.3       1 <0>         0.1368
     18 C9         -3.2073   -4.6478   -1.3008 C.3       1 <0>        -0.1220
     19 S1         -3.3726   -6.3459   -1.9170 S.3       1 <0>         0.0098
     20 C10        -4.9423   -6.8685   -1.3107 C.2       1 <0>         0.2646
     21 N5         -5.7508   -6.1363   -0.5844 N.2       1 <0>        -0.4905
     22 C11        -6.8713   -6.8471   -0.2918 C.ar      1 <0>         0.0551
     23 C12        -8.0289   -6.5574    0.4342 C.ar      1 <0>        -0.0657
     24 C13        -9.0158   -7.5103    0.5568 C.ar      1 <0>        -0.1234
     25 C14        -8.8689   -8.7557   -0.0348 C.ar      1 <0>        -0.0976
     26 C15        -7.7311   -9.0575   -0.7554 C.ar      1 <0>        -0.1110
     27 C16        -6.7278   -8.1105   -0.8895 C.ar      1 <0>         0.0568
     28 N6         -5.5007   -8.0957   -1.5324 N.pl3     1 <0>        -0.5819
     29 H3          1.0048    1.8381    0.0023 H         1 <0>         0.0955
     30 H4         -0.5450    1.8219   -0.8730 H         1 <0>         0.0752
     31 H5         -0.5280    1.8123    0.9069 H         1 <0>         0.0682
     32 H6          3.0144   -2.6772   -0.9518 H         1 <0>         0.0717
     33 H7          3.3306   -1.8457    0.5899 H         1 <0>         0.0967
     34 H8          2.6594   -3.4942    0.5892 H         1 <0>         0.0927
     35 H9         -1.8301   -4.0628   -2.8507 H         1 <0>         0.1019
     36 H10        -1.0543   -4.6755   -1.3705 H         1 <0>         0.1170
     37 H11        -3.2464   -4.6512   -0.2116 H         1 <0>         0.1046
     38 H12        -4.0222   -4.0385   -1.6918 H         1 <0>         0.1047
     39 H13        -5.1098   -8.8220   -2.0429 H         1 <0>         0.4278
     40 H14        -8.1496   -5.5896    0.8982 H         1 <0>         0.1307
     41 H15        -9.9107   -7.2859    1.1182 H         1 <0>         0.1328
     42 H16        -9.6497   -9.4945    0.0693 H         1 <0>         0.1334
     43 H17        -7.6225  -10.0295   -1.2135 H         1 <0>         0.1255
@<TRIPOS>BOND
     1    1    2 1
     2    1   29 1
     3    1   30 1
     4    1   31 1
     5    2   10 am
     6    2    3 1
     7    3    4 1
     8    3   15 1
     9    3    5 1
    10    5    6 1
    11    5    7 1
    12    5   13 1
    13    7    8 2
    14    7    9 am
    15    9   10 am
    16    9   12 1
    17   10   11 2
    18   12   32 1
    19   12   33 1
    20   12   34 1
    21   13   14 1
    22   13   17 1
    23   14   15 2
    24   14   16 1
    25   17   18 1
    26   17   35 1
    27   17   36 1
    28   18   19 1
    29   18   37 1
    30   18   38 1
    31   19   20 1
    32   20   21 2
    33   20   28 1
    34   21   22 1
    35   22   23 ar
    36   22   27 ar
    37   23   24 ar
    38   23   40 1
    39   24   25 ar
    40   24   41 1
    41   25   26 ar
    42   25   42 1
    43   26   27 ar
    44   26   43 1
    45   27   28 1
    46   28   39 1
@<TRIPOS>MOLECULE
ZINC33585083
   47    50     0     0     0
SMALL
USER_CHARGES

@<TRIPOS>ATOM
      1 C1          2.8903    0.9877   -0.4645 C.3       1 <0>         0.0252
      2 O1          2.0534   -0.1700   -0.5031 O.3       1 <0>        -0.3127
      3 C2          1.7312   -0.6568   -1.7283 C.ar      1 <0>         0.1670
      4 C3          2.2130   -0.0395   -2.8714 C.ar      1 <0>        -0.2216
      5 C4          1.8844   -0.5357   -4.1183 C.ar      1 <0>        -0.0497
      6 C5          1.0720   -1.6518   -4.2380 C.ar      1 <0>        -0.1658
      7 C6          0.5829   -2.2799   -3.1138 C.ar      1 <0>        -0.0060
      8 C7          0.9125   -1.7921   -1.8436 C.ar      1 <0>        -0.1352
      9 C8          0.4008   -2.4593   -0.6404 C.2       1 <0>         0.1057
     10 C9          0.3122   -3.8132   -0.6008 C.2       1 <0>        -0.2267
     11 C10         0.8118   -4.8174   -1.5607 C.2       1 <0>         0.5589
     12 O2          1.4063   -4.4944   -2.5724 O.2       1 <0>        -0.4596
     13 N1          0.5813   -6.0857   -1.2655 N.am      1 <0>        -0.5631
     14 C11        -0.0775   -6.4393   -0.1431 C.2       1 <0>         0.5565
     15 O3         -0.3561   -7.5564    0.2491 O.2       1 <0>        -0.4141
     16 S1         -0.4348   -4.8707    0.6318 S.3       1 <0>        -0.0389
     17 C12         1.0517   -7.1302   -2.1786 C.3       1 <0>         0.0760
     18 C13         2.4457   -7.5486   -1.7878 C.2       1 <0>         0.5054
     19 O4          2.9924   -7.0257   -0.8397 O.2       1 <0>        -0.5023
     20 N2          3.0849   -8.5038   -2.4917 N.am      1 <0>        -0.6662
     21 C14         4.3359   -8.9681   -2.0665 C.ar      1 <0>         0.1283
     22 C15         4.6298   -9.0252   -0.7054 C.ar      1 <0>        -0.0643
     23 C16         5.8559   -9.4795   -0.2710 C.ar      1 <0>        -0.1102
     24 C17         6.8136   -9.8862   -1.1917 C.ar      1 <0>         0.1342
     25 C18         6.5221   -9.8305   -2.5658 C.ar      1 <0>        -0.1386
     26 C19         5.2736   -9.3736   -2.9980 C.ar      1 <0>        -0.0816
     27 C20         7.5414  -10.2625   -3.5273 C.2       1 <0>        -0.0017
     28 C21         8.7319  -10.7011   -3.0457 C.2       1 <0>        -0.2397
     29 C22         8.9569  -10.7305   -1.6523 C.2       1 <0>         0.5058
     30 O5         10.0297  -11.1257   -1.2328 O.2       1 <0>        -0.4604
     31 O6          8.0196  -10.3332   -0.7785 O.3       1 <0>        -0.2686
     32 H1          3.8403    0.7657   -0.9505 H         1 <0>         0.0591
     33 H2          2.3986    1.8090   -0.9858 H         1 <0>         0.0601
     34 H3          3.0702    1.2715    0.5724 H         1 <0>         0.1050
     35 H4          2.8463    0.8314   -2.7875 H         1 <0>         0.1339
     36 H5          2.2630   -0.0502   -5.0056 H         1 <0>         0.1290
     37 H6          0.8208   -2.0310   -5.2176 H         1 <0>         0.1285
     38 H7         -0.0502   -3.1493   -3.2120 H         1 <0>         0.1302
     39 H8          0.0949   -1.8729    0.2134 H         1 <0>         0.1587
     40 H9          0.3847   -7.9903   -2.1213 H         1 <0>         0.1358
     41 H10         1.0605   -6.7446   -3.1981 H         1 <0>         0.1379
     42 H11         2.6784   -8.8697   -3.2928 H         1 <0>         0.4171
     43 H12         3.8899   -8.7102    0.0155 H         1 <0>         0.1510
     44 H13         6.0728   -9.5192    0.7863 H         1 <0>         0.1503
     45 H14         5.0445   -9.3339   -4.0527 H         1 <0>         0.1452
     46 H15         7.3498  -10.2329   -4.5897 H         1 <0>         0.1558
     47 H16         9.5046  -11.0270   -3.7262 H         1 <0>         0.1665
@<TRIPOS>BOND
     1    1    2 1
     2    1   32 1
     3    1   33 1
     4    1   34 1
     5    2    3 1
     6    3    8 ar
     7    3    4 ar
     8    4    5 ar
     9    4   35 1
    10    5    6 ar
    11    5   36 1
    12    6    7 ar
    13    6   37 1
    14    7    8 ar
    15    7   38 1
    16    8    9 1
    17    9   10 2
    18    9   39 1
    19   10   16 1
    20   10   11 1
    21   11   12 2
    22   11   13 am
    23   13   14 am
    24   13   17 1
    25   14   15 2
    26   14   16 1
    27   17   18 1
    28   17   40 1
    29   17   41 1
    30   18   19 2
    31   18   20 am
    32   20   21 1
    33   20   42 1
    34   21   26 ar
    35   21   22 ar
    36   22   23 ar
    37   22   43 1
    38   23   24 ar
    39   23   44 1
    40   24   31 1
    41   24   25 ar
    42   25   26 ar
    43   25   27 1
    44   26   45 1
    45   27   28 2
    46   27   46 1
    47   28   29 1
    48   28   47 1
    49   29   30 2
    50   29   31 1
@<TRIPOS>MOLECULE
ZINC09503356
   51    55     0     0     0
SMALL
USER_CHARGES
3-[[5-(4-bromophenyl)-1,3,4-oxadiazol-2-yl]methyl]-5-(2,6-dioxabicyclo[5.4.0]undeca-8,10,12-trien-9-yl)-5-methyl-imidazolidine-2,4-dione
@<TRIPOS>ATOM
      1 C1         -0.3890    7.3045    3.8143 C.3       1 <0>        -0.1453
      2 C2          0.7167    6.7207    2.9325 C.3       1 <0>         0.1722
      3 C3          2.0366    6.6974    3.6776 C.2       1 <0>         0.5364
      4 O1          2.2902    6.0959    4.6992 O.2       1 <0>        -0.4445
      5 N1          2.8696    7.4837    2.9677 N.am      1 <0>        -0.5761
      6 C4          2.2659    7.9952    1.8889 C.2       1 <0>         0.7037
      7 O2          2.8138    8.7345    1.0949 O.2       1 <0>        -0.5144
      8 N2          0.9806    7.6010    1.7812 N.am      1 <0>        -0.7158
      9 C5          4.2643    7.7453    3.3318 C.3       1 <0>         0.2213
     10 C6          5.1532    6.7099    2.6923 C.2       1 <0>         0.1325
     11 N3          5.7136    6.7958    1.5183 N.2       1 <0>        -0.2409
     12 N4          6.4039    5.7337    1.2925 N.2       1 <0>        -0.2688
     13 C7          6.3068    4.9273    2.3234 C.2       1 <0>         0.2165
     14 O3          5.5163    5.5334    3.2317 O.3       1 <0>        -0.2084
     15 C8          6.9488    3.6031    2.4643 C.ar      1 <0>        -0.0156
     16 C9          6.7601    2.8531    3.6262 C.ar      1 <0>        -0.0746
     17 C10         7.3578    1.6161    3.7499 C.ar      1 <0>        -0.0909
     18 C11         8.1521    1.1228    2.7287 C.ar      1 <0>        -0.0672
     19 C12         8.3472    1.8644    1.5760 C.ar      1 <0>        -0.0907
     20 C13         7.7505    3.1004    1.4385 C.ar      1 <0>        -0.0581
     21 Br1         8.9732   -0.5710    2.9090 Br        1 <0>        -0.0327
     22 C14         0.3460    5.3361    2.4672 C.ar      1 <0>        -0.0948
     23 C15         0.7161    4.2351    3.2171 C.ar      1 <0>        -0.1002
     24 C16         0.3798    2.9610    2.7960 C.ar      1 <0>        -0.1094
     25 C17        -0.3304    2.7922    1.6195 C.ar      1 <0>         0.0792
     26 C18        -0.7024    3.8971    0.8671 C.ar      1 <0>         0.0700
     27 C19        -0.3641    5.1709    1.2915 C.ar      1 <0>        -0.0917
     28 O4         -1.4024    3.7197   -0.2909 O.3       1 <0>        -0.3162
     29 C20        -0.6900    3.0979   -1.3624 C.3       1 <0>         0.0592
     30 C21        -0.7359    1.5835   -1.2336 C.3       1 <0>        -0.1888
     31 C22        -0.0127    1.0858    0.0080 C.3       1 <0>         0.0599
     32 O5         -0.6699    1.5409    1.1926 O.3       1 <0>        -0.3176
     33 H1         -0.5343    6.6657    4.6854 H         1 <0>         0.0901
     34 H2         -0.1034    8.3046    4.1406 H         1 <0>         0.0768
     35 H3         -1.3168    7.3593    3.2449 H         1 <0>         0.0868
     36 H4          0.3530    7.8466    1.0836 H         1 <0>         0.4439
     37 H5          4.5514    8.7368    2.9817 H         1 <0>         0.1515
     38 H6          4.3721    7.6974    4.4154 H         1 <0>         0.1350
     39 H7          6.1441    3.2387    4.4251 H         1 <0>         0.1433
     40 H8          7.2090    1.0329    4.6466 H         1 <0>         0.1460
     41 H9          8.9675    1.4742    0.7827 H         1 <0>         0.1477
     42 H10         7.9032    3.6778    0.5386 H         1 <0>         0.1511
     43 H11         1.2698    4.3702    4.1345 H         1 <0>         0.1488
     44 H12         0.6696    2.1017    3.3826 H         1 <0>         0.1422
     45 H13        -0.6525    6.0319    0.7066 H         1 <0>         0.1365
     46 H14         0.3485    3.4284   -1.3421 H         1 <0>         0.0574
     47 H15        -1.1406    3.3912   -2.3106 H         1 <0>         0.1084
     48 H16        -0.2714    1.1400   -2.1143 H         1 <0>         0.0939
     49 H17        -1.7775    1.2659   -1.1866 H         1 <0>         0.0868
     50 H18         0.0021   -0.0041    0.0020 H         1 <0>         0.1083
     51 H19         1.0116    1.4585    0.0002 H         1 <0>         0.0574
@<TRIPOS>BOND
     1    1    2 1
     2    1   33 1
     3    1   34 1
     4    1   35 1
     5    2    8 1
     6    2    3 1
     7    2   22 1
     8    3    4 2
     9    3    5 am
    10    5    6 am
    11    5    9 1
    12    6    7 2
    13    6    8 am
    14    8   36 1
    15    9   10 1
    16    9   37 1
    17    9   38 1
    18   10   14 1
    19   10   11 2
    20   11   12 1
    21   12   13 2
    22   13   14 1
    23   13   15 1
    24   15   20 ar
    25   15   16 ar
    26   16   17 ar
    27   16   39 1
    28   17   18 ar
    29   17   40 1
    30   18   19 ar
    31   18   21 1
    32   19   20 ar
    33   19   41 1
    34   20   42 1
    35   22   27 ar
    36   22   23 ar
    37   23   24 ar
    38   23   43 1
    39   24   25 ar
    40   24   44 1
    41   25   32 1
    42   25   26 ar
    43   26   27 ar
    44   26   28 1
    45   27   45 1
    46   28   29 1
    47   29   30 1
    48   29   46 1
    49   29   47 1
    50   30   31 1
    51   30   48 1
    52   30   49 1
    53   31   32 1
    54   31   50 1
    55   31   51 1
@<TRIPOS>MOLECULE
ZINC15867168
   54    58     0     0     0
SMALL
USER_CHARGES
N-[3-chloro-4-[4-(thiophene-2-carbonyl)piperazin-1-yl]phenyl]-6-(1,2,4-triazol-4-yl)pyridine-2-carboxamide
@<TRIPOS>ATOM
      1 C1         -0.0765    1.1956    0.2456 C.ar      1 <0>        -0.0456
      2 C2          0.9138    0.2371    0.4048 C.ar      1 <0>        -0.1086
      3 C3          2.1206    0.3889   -0.2723 C.ar      1 <0>         0.1124
      4 N1          2.3260    1.4366   -1.0621 N.ar      1 <0>        -0.4755
      5 C4          1.4033    2.3640   -1.2331 C.ar      1 <0>         0.3499
      6 C5          0.1736    2.2735   -0.5855 C.ar      1 <0>        -0.1464
      7 N2          1.6629    3.4505   -2.0750 N.pl3     1 <0>        -0.4342
      8 C6          0.8238    4.4855   -2.3654 C.2       1 <0>         0.1670
      9 N3          1.4581    5.2780   -3.1855 N.2       1 <0>        -0.2795
     10 N4          2.6281    4.8067   -3.4330 N.2       1 <0>        -0.2892
     11 C7          2.8053    3.6909   -2.7799 C.2       1 <0>         0.1877
     12 C8          3.1858   -0.6275   -0.1100 C.2       1 <0>         0.5766
     13 O1          3.0038   -1.5885    0.6114 O.2       1 <0>        -0.4971
     14 N5          4.3568   -0.4865   -0.7623 N.am      1 <0>        -0.6523
     15 C9          5.3969   -1.3972   -0.5386 C.ar      1 <0>         0.1530
     16 C10         6.7158   -0.9621   -0.5527 C.ar      1 <0>        -0.1250
     17 C11         7.7414   -1.8585   -0.3275 C.ar      1 <0>        -0.1142
     18 C12         7.4552   -3.1978   -0.0973 C.ar      1 <0>         0.0818
     19 C13         6.1359   -3.6346   -0.0884 C.ar      1 <0>         0.0092
     20 C14         5.1097   -2.7362   -0.3086 C.ar      1 <0>        -0.1088
     21 Cl1         5.7776   -5.3088    0.1987 Cl        1 <0>        -0.0413
     22 N6          8.4952   -4.1074    0.1261 N.pl3     1 <0>        -0.4936
     23 C15         9.2175   -3.7874    1.3646 C.3       1 <0>         0.0495
     24 C16        10.2240   -4.9024    1.6677 C.3       1 <0>         0.1095
     25 N7         11.0751   -5.0978    0.4842 N.am      1 <0>        -0.6123
     26 C17        10.4213   -5.2878   -0.8195 C.3       1 <0>         0.1207
     27 C18         9.4070   -4.1576   -1.0246 C.3       1 <0>         0.0460
     28 C19        12.4186   -5.1032    0.5916 C.2       1 <0>         0.6081
     29 O2         13.1092   -5.0924   -0.4105 O.2       1 <0>        -0.5232
     30 C20        13.0480   -5.1219    1.9153 C.2       1 <0>        -0.2459
     31 C21        14.3858   -4.9792    2.2487 C.2       1 <0>        -0.0650
     32 C22        14.7070   -5.0340    3.5821 C.2       1 <0>        -0.1785
     33 C23        13.7198   -5.2317    4.4947 C.2       1 <0>        -0.1991
     34 S1         12.2928   -5.3421    3.5166 S.3       1 <0>         0.1544
     35 H1         -1.0222    1.1024    0.7588 H         1 <0>         0.1625
     36 H2          0.7506   -0.6161    1.0465 H         1 <0>         0.1636
     37 H3         -0.5752    3.0388   -0.7269 H         1 <0>         0.1546
     38 H4         -0.1776    4.6246   -1.9856 H         1 <0>         0.2275
     39 H5          3.6911    3.0732   -2.7949 H         1 <0>         0.2263
     40 H6          4.4791    0.2457   -1.3866 H         1 <0>         0.4233
     41 H7          6.9389    0.0787   -0.7357 H         1 <0>         0.1350
     42 H8          8.7666   -1.5190   -0.3348 H         1 <0>         0.1343
     43 H9          4.0844   -3.0753   -0.3021 H         1 <0>         0.1535
     44 H10         9.7471   -2.8425    1.2431 H         1 <0>         0.0484
     45 H11         8.5082   -3.7040    2.1881 H         1 <0>         0.0961
     46 H12         9.6906   -5.8262    1.8917 H         1 <0>         0.0904
     47 H13        10.8412   -4.6169    2.5195 H         1 <0>         0.0903
     48 H14         9.9068   -6.2486   -0.8346 H         1 <0>         0.0832
     49 H15        11.1670   -5.2592   -1.6140 H         1 <0>         0.1031
     50 H16         8.8351   -4.3426   -1.9339 H         1 <0>         0.0948
     51 H17         9.9339   -3.2075   -1.1129 H         1 <0>         0.0478
     52 H18        15.1421   -4.8288    1.4926 H         1 <0>         0.1475
     53 H19        15.7329   -4.9257    3.9019 H         1 <0>         0.1391
     54 H20        13.8038   -5.3028    5.5691 H         1 <0>         0.1881
@<TRIPOS>BOND
     1    1    6 ar
     2    1    2 ar
     3    1   35 1
     4    2    3 ar
     5    2   36 1
     6    3    4 ar
     7    3   12 1
     8    4    5 ar
     9    5    6 ar
    10    5    7 1
    11    6   37 1
    12    7   11 1
    13    7    8 1
    14    8    9 2
    15    8   38 1
    16    9   10 1
    17   10   11 2
    18   11   39 1
    19   12   13 2
    20   12   14 am
    21   14   15 1
    22   14   40 1
    23   15   20 ar
    24   15   16 ar
    25   16   17 ar
    26   16   41 1
    27   17   18 ar
    28   17   42 1
    29   18   19 ar
    30   18   22 1
    31   19   20 ar
    32   19   21 1
    33   20   43 1
    34   22   27 1
    35   22   23 1
    36   23   24 1
    37   23   44 1
    38   23   45 1
    39   24   25 1
    40   24   46 1
    41   24   47 1
    42   25   26 1
    43   25   28 am
    44   26   27 1
    45   26   48 1
    46   26   49 1
    47   27   50 1
    48   27   51 1
    49   28   29 2
    50   28   30 1
    51   30   34 1
    52   30   31 2
    53   31   32 1
    54   31   52 1
    55   32   33 2
    56   32   53 1
    57   33   34 1
    58   33   54 1
@<TRIPOS>MOLECULE
ZINC21358498
   60    63     0     0     0
SMALL
USER_CHARGES
N-[4-[4-[(3-isopropyl-2-oxo-1,3-benzothiazol-6-yl)sulfonyl]piperazine-1-carbonyl]phenyl]acetamide
@<TRIPOS>ATOM
      1 C1          4.3318   12.0718    6.5272 C.3       1 <0>        -0.1726
      2 C2          5.0110   12.5654    5.2482 C.3       1 <0>         0.1178
      3 C3          6.2946   13.3157    5.6093 C.3       1 <0>        -0.1733
      4 N1          5.3384   11.4198    4.3958 N.am      1 <0>        -0.5443
      5 C4          4.7972   11.3353    3.1240 C.ar      1 <0>         0.1910
      6 C5          3.9283   12.2444    2.4979 C.ar      1 <0>        -0.1418
      7 C6          3.4782   12.0231    1.2183 C.ar      1 <0>         0.0184
      8 C7          3.8550   10.8954    0.5089 C.ar      1 <0>        -0.6898
      9 C8          4.7102    9.9820    1.1007 C.ar      1 <0>         0.0652
     10 C9          5.1644   10.2060    2.3775 C.ar      1 <0>        -0.1580
     11 S1          6.2405    9.3238    3.4818 S.3       1 <0>        -0.0309
     12 C10         6.1633   10.4595    4.8573 C.2       1 <0>         0.5425
     13 O1          6.7167   10.3853    5.9389 O.2       1 <0>        -0.4295
     14 S2          3.2595   10.6301   -1.1281 S.o2      1 <0>         2.6947
     15 O2          4.2003    9.7800   -1.7696 O.2       1 <0>        -0.9458
     16 O3          2.9099   11.9067   -1.6449 O.2       1 <0>        -0.9455
     17 N2          1.8510    9.7682   -1.0031 N.pl3     1 <0>        -0.9956
     18 C11         0.5595   10.4591   -0.8833 C.3       1 <0>         0.1029
     19 C12        -0.1512    9.9542    0.3785 C.3       1 <0>         0.0952
     20 N3         -0.1320    8.4846    0.3722 N.am      1 <0>        -0.6042
     21 C13         1.1601    7.7937    0.2580 C.3       1 <0>         0.0723
     22 C14         1.8703    8.2987   -1.0095 C.3       1 <0>         0.1025
     23 C15        -1.2782    7.7832    0.4748 C.2       1 <0>         0.5676
     24 O4         -2.3312    8.3626    0.6586 O.2       1 <0>        -0.5307
     25 C16        -1.2553    6.3115    0.3640 C.ar      1 <0>        -0.1532
     26 C17        -2.1818    5.6561   -0.4514 C.ar      1 <0>        -0.0423
     27 C18        -2.1574    4.2834   -0.5528 C.ar      1 <0>        -0.1547
     28 C19        -1.2113    3.5487    0.1550 C.ar      1 <0>         0.1785
     29 C20        -0.2910    4.1977    0.9721 C.ar      1 <0>        -0.1360
     30 C21        -0.3066    5.5705    1.0739 C.ar      1 <0>        -0.0724
     31 N4         -1.1890    2.1585    0.0496 N.am      1 <0>        -0.6875
     32 C22        -0.0327    1.4880    0.2225 C.2       1 <0>         0.5126
     33 O5          1.0051    2.0974    0.3722 O.2       1 <0>        -0.5233
     34 C23        -0.0285   -0.0190    0.2238 C.3       1 <0>        -0.1773
     35 H1          3.4090   11.5324    6.2676 H         1 <0>         0.0627
     36 H2          4.0860   12.9320    7.1672 H         1 <0>         0.0828
     37 H3          5.0121   11.3962    7.0663 H         1 <0>         0.0772
     38 H4          4.3320   13.2131    4.6742 H         1 <0>         0.1039
     39 H5          6.7829   13.6706    4.6897 H         1 <0>         0.0633
     40 H6          6.9749   12.6400    6.1484 H         1 <0>         0.0773
     41 H7          6.0488   14.1759    6.2493 H         1 <0>         0.0829
     42 H8          3.6136   13.1316    3.0273 H         1 <0>         0.1433
     43 H9          2.8143   12.7405    0.7589 H         1 <0>         0.1531
     44 H10         5.0183    9.0982    0.5618 H         1 <0>         0.1558
     45 H11         0.7293   11.5434   -0.8087 H         1 <0>         0.1076
     46 H12        -0.0549   10.2444   -1.7701 H         1 <0>         0.0860
     47 H13         0.3718   10.3314    1.2697 H         1 <0>         0.0752
     48 H14        -1.1904   10.3148    0.3832 H         1 <0>         0.1099
     49 H15         1.7726    8.0126    1.1451 H         1 <0>         0.0794
     50 H16         0.9910    6.7090    0.1878 H         1 <0>         0.1164
     51 H17         1.3479    7.9291   -1.9042 H         1 <0>         0.0874
     52 H18         2.9121    7.9457   -1.0211 H         1 <0>         0.1076
     53 H19        -2.9160    6.2259   -1.0016 H         1 <0>         0.1347
     54 H20        -2.8731    3.7762   -1.1828 H         1 <0>         0.1340
     55 H21         0.4393    3.6242    1.5236 H         1 <0>         0.1464
     56 H22         0.4108    6.0740    1.7049 H         1 <0>         0.1342
     57 H23        -2.1151    1.6090   -0.1747 H         1 <0>         0.4397
     58 H24         0.9983   -0.3827    0.3772 H         1 <0>         0.0986
     59 H25        -0.4077   -0.3875   -0.7407 H         1 <0>         0.0936
     60 H26        -0.6729   -0.3867    1.0359 H         1 <0>         0.0942
@<TRIPOS>BOND
     1    1    2 1
     2    1   35 1
     3    1   36 1
     4    1   37 1
     5    2    3 1
     6    2    4 1
     7    2   38 1
     8    3   39 1
     9    3   40 1
    10    3   41 1
    11    4   12 am
    12    4    5 1
    13    5   10 ar
    14    5    6 ar
    15    6    7 ar
    16    6   42 1
    17    7    8 ar
    18    7   43 1
    19    8    9 ar
    20    8   14 1
    21    9   10 ar
    22    9   44 1
    23   10   11 1
    24   11   12 1
    25   12   13 2
    26   14   15 2
    27   14   16 2
    28   14   17 1
    29   17   22 1
    30   17   18 1
    31   18   19 1
    32   18   45 1
    33   18   46 1
    34   19   20 1
    35   19   47 1
    36   19   48 1
    37   20   21 1
    38   20   23 am
    39   21   22 1
    40   21   49 1
    41   21   50 1
    42   22   51 1
    43   22   52 1
    44   23   24 2
    45   23   25 1
    46   25   30 ar
    47   25   26 ar
    48   26   27 ar
    49   26   53 1
    50   27   28 ar
    51   27   54 1
    52   28   29 ar
    53   28   31 1
    54   29   30 ar
    55   29   55 1
    56   30   56 1
    57   31   32 am
    58   31   57 1
    59   32   33 2
    60   32   34 1
    61   34   58 1
    62   34   59 1
    63   34   60 1
@<TRIPOS>MOLECULE
ZINC37640896
   60    64     0     0     0
SMALL
USER_CHARGES

@<TRIPOS>ATOM
      1 C1          0.0084    1.5031    0.0069 C.3       1 <0>        -0.1138
      2 C2          0.0217   -0.0038   -0.0005 C.ar      1 <0>        -0.1000
      3 C3          0.7771   -0.6917    0.9315 C.ar      1 <0>        -0.1007
      4 C4          0.7914   -2.0727    0.9274 C.ar      1 <0>        -0.1145
      5 C5          0.0458   -2.7706   -0.0138 C.ar      1 <0>         0.1401
      6 C6         -0.7120   -2.0768   -0.9480 C.ar      1 <0>        -0.1395
      7 C7         -0.7259   -0.6958   -0.9356 C.ar      1 <0>        -0.1016
      8 N1          0.0586   -4.1697   -0.0209 N.am      1 <0>        -0.6692
      9 C8          0.1754   -4.8485    1.1376 C.2       1 <0>         0.5036
     10 O1          0.1732   -4.2513    2.1932 O.2       1 <0>        -0.4997
     11 C9          0.3087   -6.3495    1.1213 C.3       1 <0>         0.0929
     12 N2          0.4196   -6.8449    2.4955 N.am      1 <0>        -0.5357
     13 C10         1.6379   -6.9567    3.0555 C.2       1 <0>         0.5839
     14 O2          2.6355   -6.6506    2.4287 O.2       1 <0>        -0.4940
     15 C11         1.7482   -7.4562    4.4427 C.2       1 <0>        -0.2353
     16 C12         2.9657   -7.6559    5.2436 C.2       1 <0>        -0.0468
     17 C13         2.7519   -8.1268    6.4824 C.2       1 <0>        -0.2264
     18 S1          0.9893   -8.3024    6.5972 S.3       1 <0>         0.2813
     19 C14         0.5519   -7.7787    5.0739 C.2       1 <0>         0.0499
     20 N3         -0.6502   -7.6344    4.4286 N.am      1 <0>        -0.4780
     21 C15        -0.6978   -7.1703    3.1656 C.2       1 <0>         0.7247
     22 O3         -1.7765   -7.0472    2.6179 O.2       1 <0>        -0.5281
     23 C16        -1.8929   -7.9838    5.1214 C.3       1 <0>         0.0925
     24 C17        -2.4212   -6.7731    5.8468 C.2       1 <0>         0.5004
     25 O4         -1.8189   -5.7219    5.7906 O.2       1 <0>        -0.5086
     26 N4         -3.5629   -6.8585    6.5579 N.am      1 <0>        -0.6127
     27 C18        -4.3077   -8.1246    6.6457 C.3       1 <0>         0.0666
     28 C19        -4.5948   -8.4151    8.1232 C.3       1 <0>         0.0465
     29 O5         -5.2147   -7.2714    8.7160 O.3       1 <0>        -0.3754
     30 C20        -4.3983   -6.0978    8.7170 C.3       1 <0>         0.0483
     31 C21        -4.0982   -5.6900    7.2745 C.3       1 <0>         0.0769
     32 C22         4.0371   -8.3111    7.2435 C.3       1 <0>        -0.0281
     33 C23         5.1377   -8.2930    6.1593 C.3       1 <0>        -0.1160
     34 C24         4.4676   -7.4641    5.0446 C.3       1 <0>        -0.0618
     35 H1         -0.7937    1.8562    0.6550 H         1 <0>         0.0699
     36 H2          0.9644    1.8731    0.3775 H         1 <0>         0.0663
     37 H3         -0.1551    1.8700   -1.0064 H         1 <0>         0.0665
     38 H4          1.3567   -0.1484    1.6631 H         1 <0>         0.1253
     39 H5          1.3821   -2.6094    1.6550 H         1 <0>         0.1320
     40 H6         -1.2926   -2.6167   -1.6815 H         1 <0>         0.1265
     41 H7         -1.3183   -0.1557   -1.6593 H         1 <0>         0.1270
     42 H8         -0.0167   -4.6512   -0.8596 H         1 <0>         0.4126
     43 H9         -0.5697   -6.7872    0.6470 H         1 <0>         0.1352
     44 H10         1.2011   -6.6289    0.5612 H         1 <0>         0.1376
     45 H11        -2.6312   -8.3227    4.3945 H         1 <0>         0.1412
     46 H12        -1.6972   -8.7806    5.8389 H         1 <0>         0.1243
     47 H13        -5.2469   -8.0366    6.0996 H         1 <0>         0.0878
     48 H14        -3.7104   -8.9320    6.2221 H         1 <0>         0.0930
     49 H15        -5.2623   -9.2731    8.2025 H         1 <0>         0.1119
     50 H16        -3.6598   -8.6313    8.6401 H         1 <0>         0.0593
     51 H17        -4.9245   -5.2887    9.2234 H         1 <0>         0.1113
     52 H18        -3.4626   -6.3056    9.2360 H         1 <0>         0.0583
     53 H19        -3.3622   -4.8860    7.2670 H         1 <0>         0.1038
     54 H20        -5.0159   -5.3528    6.7928 H         1 <0>         0.0807
     55 H21         4.1831   -7.4916    7.9471 H         1 <0>         0.0881
     56 H22         4.0350   -9.2671    7.7672 H         1 <0>         0.0828
     57 H23         6.0377   -7.7991    6.5254 H         1 <0>         0.0878
     58 H24         5.3615   -9.3023    5.8139 H         1 <0>         0.0795
     59 H25         4.7690   -7.8353    4.0651 H         1 <0>         0.0831
     60 H26         4.7305   -6.4113    5.1474 H         1 <0>         0.0867
@<TRIPOS>BOND
     1    1    2 1
     2    1   35 1
     3    1   36 1
     4    1   37 1
     5    2    7 ar
     6    2    3 ar
     7    3    4 ar
     8    3   38 1
     9    4    5 ar
    10    4   39 1
    11    5    6 ar
    12    5    8 1
    13    6    7 ar
    14    6   40 1
    15    7   41 1
    16    8    9 am
    17    8   42 1
    18    9   10 2
    19    9   11 1
    20   11   12 1
    21   11   43 1
    22   11   44 1
    23   12   21 am
    24   12   13 am
    25   13   14 2
    26   13   15 1
    27   15   19 2
    28   15   16 1
    29   16   34 1
    30   16   17 2
    31   17   18 1
    32   17   32 1
    33   18   19 1
    34   19   20 1
    35   20   21 am
    36   20   23 1
    37   21   22 2
    38   23   24 1
    39   23   45 1
    40   23   46 1
    41   24   25 2
    42   24   26 am
    43   26   31 1
    44   26   27 1
    45   27   28 1
    46   27   47 1
    47   27   48 1
    48   28   29 1
    49   28   49 1
    50   28   50 1
    51   29   30 1
    52   30   31 1
    53   30   51 1
    54   30   52 1
    55   31   53 1
    56   31   54 1
    57   32   33 1
    58   32   55 1
    59   32   56 1
    60   33   34 1
    61   33   57 1
    62   33   58 1
    63   34   59 1
    64   34   60 1
@<TRIPOS>MOLECULE
ZINC20206908
   53    56     0     0     0
SMALL
USER_CHARGES

@<TRIPOS>ATOM
      1 C1          0.9416    1.0077   -2.6668 C.3       1 <0>        -0.1453
      2 C2          1.8519   -0.2132   -2.8146 C.3       1 <0>        -0.5804
      3 S1          1.0548   -1.6567   -2.0587 S.o2      1 <0>         2.5007
      4 O1          0.9784   -1.4917   -0.6494 O.2       1 <0>        -0.8826
      5 O2         -0.0937   -2.0298   -2.8077 O.2       1 <0>        -0.8936
      6 C3          2.1949   -2.9792   -2.2954 C.2       1 <0>        -0.1974
      7 N1          2.0574   -3.8044   -3.2865 N.2       1 <0>        -0.3655
      8 S2          3.3368   -4.8736   -3.1133 S.3       1 <0>         0.4135
      9 C4          4.0112   -4.2650   -1.7157 C.2       1 <0>         0.3022
     10 N2          5.0326   -4.6948   -1.0099 N.2       1 <0>        -0.5328
     11 C5          5.3574   -4.0667    0.1360 C.2       1 <0>         0.5411
     12 O3          6.3761   -4.3584    0.7418 O.2       1 <0>        -0.4304
     13 C6          4.4479   -3.0119    0.6438 C.2       1 <0>        -0.2984
     14 C7          4.3864   -2.6860    1.9833 C.2       1 <0>         0.1288
     15 C8          5.0756   -3.4768    2.9380 C.2       1 <0>        -0.1981
     16 C9          5.2616   -4.9346    2.9121 C.2       1 <0>        -0.1159
     17 C10         5.9711   -5.2467    4.0093 C.2       1 <0>         0.0191
     18 N3          6.2395   -4.1046    4.7116 N.pl3     1 <0>        -0.3850
     19 C11         5.7167   -3.0331    4.0831 C.2       1 <0>         0.1043
     20 C12         5.8099   -1.6023    4.5472 C.3       1 <0>        -0.0976
     21 C13         6.9616   -4.0546    5.9129 C.ar      1 <0>         0.0787
     22 C14         6.3319   -3.6594    7.0856 C.ar      1 <0>        -0.0597
     23 C15         7.0426   -3.6106    8.2684 C.ar      1 <0>        -0.1862
     24 C16         8.3860   -3.9560    8.2857 C.ar      1 <0>         0.1529
     25 C17         9.0166   -4.3513    7.1137 C.ar      1 <0>        -0.0606
     26 C18         8.3045   -4.4059    5.9308 C.ar      1 <0>        -0.0570
     27 Cl1        10.6980   -4.7829    7.1356 Cl        1 <0>        -0.0379
     28 O4          9.0855   -3.9069    9.4506 O.3       1 <0>        -0.2992
     29 C19         8.3736   -3.4909   10.6177 C.3       1 <0>         0.0220
     30 C20         6.4024   -6.6356    4.4039 C.3       1 <0>        -0.0865
     31 C21         3.6042   -2.3230   -0.3729 C.2       1 <0>         0.4466
     32 N4          3.2437   -1.0708   -0.2786 N.2       1 <0>        -0.6652
     33 N5          3.2379   -3.1540   -1.4501 N.pl3     1 <0>        -0.4653
     34 H1         -0.0085    0.8149   -3.1650 H         1 <0>         0.0754
     35 H2          0.7643    1.2028   -1.6092 H         1 <0>         0.0787
     36 H3          1.4206    1.8751   -3.1210 H         1 <0>         0.0925
     37 H4          2.0292   -0.4083   -3.8723 H         1 <0>         0.1373
     38 H5          2.8020   -0.0204   -2.3165 H         1 <0>         0.1524
     39 H6          3.8135   -1.8287    2.3047 H         1 <0>         0.1359
     40 H7          4.8993   -5.6196    2.1599 H         1 <0>         0.1414
     41 H8          4.9614   -1.3736    5.1921 H         1 <0>         0.0840
     42 H9          6.7370   -1.4600    5.1024 H         1 <0>         0.0744
     43 H10         5.7985   -0.9385    3.6827 H         1 <0>         0.0861
     44 H11         5.2862   -3.3897    7.0726 H         1 <0>         0.1402
     45 H12         6.5526   -3.3031    9.1804 H         1 <0>         0.1492
     46 H13         8.7937   -4.7173    5.0197 H         1 <0>         0.1487
     47 H14         7.5459   -4.1757   10.8018 H         1 <0>         0.0612
     48 H15         9.0468   -3.4959   11.4750 H         1 <0>         0.1084
     49 H16         7.9852   -2.4837   10.4667 H         1 <0>         0.0611
     50 H17         7.3789   -6.8500    3.9696 H         1 <0>         0.0750
     51 H18         6.4655   -6.7017    5.4901 H         1 <0>         0.0642
     52 H19         5.6749   -7.3599    4.0375 H         1 <0>         0.0829
     53 H20         3.5267   -0.5407    0.4828 H         1 <0>         0.3818
@<TRIPOS>BOND
     1    1    2 1
     2    1   34 1
     3    1   35 1
     4    1   36 1
     5    2    3 1
     6    2   37 1
     7    2   38 1
     8    3    4 2
     9    3    5 2
    10    3    6 1
    11    6   33 1
    12    6    7 2
    13    7    8 1
    14    8    9 1
    15    9   33 1
    16    9   10 2
    17   10   11 1
    18   11   12 2
    19   11   13 1
    20   13   14 2
    21   13   31 1
    22   14   15 1
    23   14   39 1
    24   15   19 2
    25   15   16 1
    26   16   17 2
    27   16   40 1
    28   17   18 1
    29   17   30 1
    30   18   19 1
    31   18   21 1
    32   19   20 1
    33   20   41 1
    34   20   42 1
    35   20   43 1
    36   21   26 ar
    37   21   22 ar
    38   22   23 ar
    39   22   44 1
    40   23   24 ar
    41   23   45 1
    42   24   25 ar
    43   24   28 1
    44   25   26 ar
    45   25   27 1
    46   26   46 1
    47   28   29 1
    48   29   47 1
    49   29   48 1
    50   29   49 1
    51   30   50 1
    52   30   51 1
    53   30   52 1
    54   31   32 2
    55   31   33 1
    56   32   53 1
@<TRIPOS>MOLECULE
ZINC13033178
   43    45     0     0     0
SMALL
USER_CHARGES
5-[(5E)-5-[(6-nitro-4H-1,3-benzodioxin-8-yl)methylene]-4-oxo-2-thioxo-thiazolidin-3-yl]pentanoic acid
@<TRIPOS>ATOM
      1 C1          1.1042    2.1941    0.7987 C.ar      1 <0>         0.0104
      2 C2         -0.0479    1.8428    1.4828 C.ar      1 <0>        -0.0752
      3 C3         -1.2302    2.5072    1.2411 C.ar      1 <0>         0.0484
      4 C4         -1.2650    3.5486    0.3065 C.ar      1 <0>        -0.1161
      5 C5         -0.0935    3.8992   -0.3857 C.ar      1 <0>         0.2189
      6 C6          1.0844    3.2184   -0.1304 C.ar      1 <0>        -0.2111
      7 C7          2.3526    3.5897   -0.8571 C.3       1 <0>         0.1049
      8 O1          2.0270    4.3852   -2.0008 O.3       1 <0>        -0.3750
      9 C8          1.1263    5.4579   -1.6998 C.3       1 <0>         0.2177
     10 O2         -0.1295    4.9006   -1.3015 O.3       1 <0>        -0.3132
     11 C9         -2.5189    4.2661    0.0468 C.2       1 <0>         0.0877
     12 C10        -3.6868    3.5801   -0.0465 C.2       1 <0>        -0.2268
     13 C11        -3.9225    2.1229   -0.0776 C.2       1 <0>         0.5362
     14 O3         -3.0050    1.3254   -0.0168 O.2       1 <0>        -0.4465
     15 N1         -5.1811    1.7280   -0.1709 N.am      1 <0>        -0.5164
     16 C12        -6.1942    2.6151   -0.2453 C.2       1 <0>         0.2782
     17 S1         -7.8724    2.3037   -0.3776 S.2       1 <0>        -0.3044
     18 S2         -5.3613    4.1929   -0.1733 S.3       1 <0>         0.0622
     19 C13        -5.4812    0.2944   -0.2009 C.3       1 <0>         0.0814
     20 C14        -5.4737   -0.1981   -1.6495 C.3       1 <0>        -0.1294
     21 C15        -5.7871   -1.6953   -1.6808 C.3       1 <0>        -0.0914
     22 C16        -5.7796   -2.1877   -3.1293 C.3       1 <0>        -0.1559
     23 C17        -6.0883   -3.6625   -3.1602 C.2       1 <0>         0.4590
     24 O4         -6.2934   -4.2584   -2.1293 O.co2     1 <0>        -0.6402
     25 N2         -0.0098    0.7440    2.4739 N.pl3     1 <0>         0.0341
     26 O5          1.0328    0.1512    2.6862 O.2       1 <0>        -0.1584
     27 O6         -1.0211    0.4327    3.0772 O.3       1 <0>        -0.1517
     28 H1          2.0251    1.6642    0.9925 H         1 <0>         0.1643
     29 H2         -2.1270    2.2280    1.7742 H         1 <0>         0.1608
     30 H3          3.0005    4.1589   -0.1905 H         1 <0>         0.0855
     31 H4          2.8664    2.6837   -1.1785 H         1 <0>         0.1264
     32 H5          0.9871    6.0782   -2.5852 H         1 <0>         0.1541
     33 H6          1.5317    6.0632   -0.8891 H         1 <0>         0.0756
     34 H7         -2.5125    5.3397   -0.0701 H         1 <0>         0.1686
     35 H8         -4.7272   -0.2467    0.3707 H         1 <0>         0.1077
     36 H9         -6.4639    0.1197    0.2371 H         1 <0>         0.1164
     37 H10        -6.2277    0.3430   -2.2211 H         1 <0>         0.0697
     38 H11        -4.4910   -0.0234   -2.0875 H         1 <0>         0.0621
     39 H12        -5.0331   -2.2364   -1.1092 H         1 <0>         0.0646
     40 H13        -6.7698   -1.8700   -1.2427 H         1 <0>         0.0691
     41 H14        -6.5336   -1.6467   -3.7010 H         1 <0>         0.0639
     42 H15        -4.7969   -2.0130   -3.5674 H         1 <0>         0.0609
     43 O7         -6.1356   -4.3139   -4.3328 O.co2     1 <0>        -0.7772
@<TRIPOS>BOND
     1    1    6 ar
     2    1    2 ar
     3    1   28 1
     4    2    3 ar
     5    2   25 1
     6    3    4 ar
     7    3   29 1
     8    4    5 ar
     9    4   11 1
    10    5   10 1
    11    5    6 ar
    12    6    7 1
    13    7    8 1
    14    7   30 1
    15    7   31 1
    16    8    9 1
    17    9   10 1
    18    9   32 1
    19    9   33 1
    20   11   12 2
    21   11   34 1
    22   12   18 1
    23   12   13 1
    24   13   14 2
    25   13   15 am
    26   15   16 1
    27   15   19 1
    28   16   17 2
    29   16   18 1
    30   19   20 1
    31   19   35 1
    32   19   36 1
    33   20   21 1
    34   20   37 1
    35   20   38 1
    36   21   22 1
    37   21   39 1
    38   21   40 1
    39   22   23 1
    40   22   41 1
    41   22   42 1
    42   23   24 2
    43   23   43 1
    44   25   26 2
    45   25   27 1
@<TRIPOS>MOLECULE
ZINC13253903
   57    60     0     0     0
SMALL
USER_CHARGES
(3S)-1-[2-[[3-(2-methoxyethyl)-4-oxo-5,6,7,8-tetrahydrobenzothiopheno[2,3-d]pyrimidin-2-yl]sulfanyl]acetyl]piperidine-3-carboxylic acid
@<TRIPOS>ATOM
      1 C1         -4.7124   11.8235    1.5226 C.3       1 <0>         0.0314
      2 O1         -4.1757   11.7763    0.1990 O.3       1 <0>        -0.3753
      3 C2         -4.2020   10.4759   -0.3928 C.3       1 <0>         0.0417
      4 C3         -3.6065   10.5440   -1.8005 C.3       1 <0>         0.0874
      5 N1         -2.1885   10.9019   -1.7141 N.am      1 <0>        -0.5070
      6 C4         -1.8325   12.1994   -1.7393 C.2       1 <0>         0.5636
      7 O2         -2.6796   13.0710   -1.8337 O.2       1 <0>        -0.5022
      8 C5         -0.4458   12.5418   -1.6542 C.2       1 <0>        -0.2552
      9 C6          0.1617   13.8739   -1.6623 C.2       1 <0>        -0.0417
     10 C7          1.5055   13.9343   -1.5702 C.2       1 <0>        -0.1792
     11 S1          2.0363   12.2462   -1.4673 S.3       1 <0>         0.1338
     12 C8          0.4463   11.4614   -1.5491 C.2       1 <0>         0.1229
     13 N2          0.0294   10.2010   -1.5244 N.2       1 <0>        -0.5049
     14 C9         -1.2538    9.9130   -1.6091 C.2       1 <0>         0.3592
     15 S2         -1.7702    8.2286   -1.5791 S.3       1 <0>         0.1001
     16 C10        -0.1627    7.4096   -1.4333 C.3       1 <0>        -0.1490
     17 C11        -0.3619    5.9165   -1.3885 C.2       1 <0>         0.5273
     18 O3         -1.4805    5.4518   -1.4492 O.2       1 <0>        -0.5283
     19 N3          0.7031    5.0975   -1.2810 N.am      1 <0>        -0.5969
     20 C12         2.0643    5.6454   -1.2065 C.3       1 <0>         0.1022
     21 C13         2.7571    5.0775    0.0361 C.3       1 <0>        -0.1357
     22 C14         2.6963    3.5488   -0.0046 C.3       1 <0>        -0.0979
     23 C15         1.2350    3.0943    0.0069 C.3       1 <0>        -0.1409
     24 H1          0.7432    3.4730    0.9029 H         1 <0>         0.0722
     25 C16         0.5249    3.6398   -1.2361 C.3       1 <0>         0.1357
     26 C17         1.1765    1.5884   -0.0006 C.2       1 <0>         0.4672
     27 O4          2.1986    0.9442   -0.0139 O.co2     1 <0>        -0.6353
     28 C18         2.3601   15.1650   -1.5576 C.3       1 <0>        -0.0337
     29 C19         1.5101   16.3503   -2.0372 C.3       1 <0>        -0.1145
     30 C20         0.1734   16.3304   -1.2899 C.3       1 <0>        -0.1220
     31 C21        -0.6709   15.1486   -1.7682 C.3       1 <0>        -0.0588
     32 H2         -4.6563   12.8440    1.9012 H         1 <0>         0.0856
     33 H3         -5.7529   11.4994    1.5045 H         1 <0>         0.0431
     34 H4         -4.1374   11.1630    2.1716 H         1 <0>         0.0403
     35 H5         -5.2320   10.1238   -0.4507 H         1 <0>         0.0756
     36 H6         -3.6164    9.7874    0.2165 H         1 <0>         0.0613
     37 H7         -4.1365   11.2975   -2.3831 H         1 <0>         0.1182
     38 H8         -3.7073    9.5729   -2.2851 H         1 <0>         0.1150
     39 H9          0.3308    7.7379   -0.5186 H         1 <0>         0.1310
     40 H10         0.4560    7.6680   -2.2927 H         1 <0>         0.1307
     41 H11         2.0174    6.7320   -1.1342 H         1 <0>         0.0816
     42 H12         2.6223    5.3603   -2.0984 H         1 <0>         0.0741
     43 H13         2.2509    5.4380    0.9316 H         1 <0>         0.0634
     44 H14         3.7983    5.3998    0.0515 H         1 <0>         0.0732
     45 H15         3.2101    3.1416    0.8661 H         1 <0>         0.0668
     46 H16         3.1810    3.1902   -0.9127 H         1 <0>         0.0642
     47 H17         0.9574    3.1910   -2.1304 H         1 <0>         0.0671
     48 H18        -0.5377    3.4030   -1.1833 H         1 <0>         0.1017
     49 H19         3.2100   15.0285   -2.2263 H         1 <0>         0.0818
     50 H20         2.7165   15.3547   -0.5452 H         1 <0>         0.0832
     51 H21         1.3312   16.2621   -3.1088 H         1 <0>         0.0682
     52 H22         2.0313   17.2848   -1.8292 H         1 <0>         0.0735
     53 H23        -0.3627   17.2598   -1.4817 H         1 <0>         0.0694
     54 H24         0.3591   16.2335   -0.2202 H         1 <0>         0.0650
     55 H25        -0.9664   15.3068   -2.8054 H         1 <0>         0.0769
     56 H26        -1.5593   15.0577   -1.1431 H         1 <0>         0.0868
     57 O5         -0.0110    0.9628    0.0073 O.co2     1 <0>        -0.7641
@<TRIPOS>BOND
     1    1    2 1
     2    1   32 1
     3    1   33 1
     4    1   34 1
     5    2    3 1
     6    3    4 1
     7    3   35 1
     8    3   36 1
     9    4    5 1
    10    4   37 1
    11    4   38 1
    12    5   14 1
    13    5    6 am
    14    6    7 2
    15    6    8 1
    16    8   12 2
    17    8    9 1
    18    9   31 1
    19    9   10 2
    20   10   11 1
    21   10   28 1
    22   11   12 1
    23   12   13 1
    24   13   14 2
    25   14   15 1
    26   15   16 1
    27   16   17 1
    28   16   39 1
    29   16   40 1
    30   17   18 2
    31   17   19 am
    32   19   25 1
    33   19   20 1
    34   20   21 1
    35   20   41 1
    36   20   42 1
    37   21   22 1
    38   21   43 1
    39   21   44 1
    40   22   23 1
    41   22   45 1
    42   22   46 1
    43   23   24 1
    44   23   25 1
    45   23   26 1
    46   25   47 1
    47   25   48 1
    48   26   27 2
    49   26   57 1
    50   28   29 1
    51   28   49 1
    52   28   50 1
    53   29   30 1
    54   29   51 1
    55   29   52 1
    56   30   31 1
    57   30   53 1
    58   30   54 1
    59   31   55 1
    60   31   56 1
@<TRIPOS>MOLECULE
ZINC05354870
   50    53     0     0     0
SMALL
USER_CHARGES
(5R)-4-(4-ethoxybenzoyl)-3-hydroxy-1-(5-methyl-1,3,4-thiadiazol-2-yl)-5-(3-nitrophenyl)-5H-pyrrol-2-one
@<TRIPOS>ATOM
      1 C1          4.7389   -7.9741   -6.1669 C.3       1 <0>        -0.1535
      2 C2          4.8173   -6.7972   -5.1924 C.3       1 <0>         0.0503
      3 O1          5.6355   -7.1558   -4.0771 O.3       1 <0>        -0.3155
      4 C3          5.7262   -6.2564   -3.0651 C.ar      1 <0>         0.1477
      5 C4          6.4140   -6.5875   -1.9028 C.ar      1 <0>        -0.1661
      6 C5          6.5084   -5.6780   -0.8738 C.ar      1 <0>        -0.0308
      7 C6          5.9115   -4.4198   -0.9985 C.ar      1 <0>        -0.1813
      8 C7          5.2163   -4.0928   -2.1668 C.ar      1 <0>        -0.0245
      9 C8          5.1316   -5.0061   -3.1934 C.ar      1 <0>        -0.2230
     10 C9          6.0097   -3.4415    0.1026 C.2       1 <0>         0.5092
     11 O2          6.6961   -3.6887    1.0767 O.2       1 <0>        -0.4673
     12 C10         5.2805   -2.1724    0.0227 C.2       1 <0>        -0.4857
     13 C11         5.8213   -0.9344   -0.0675 C.2       1 <0>         0.2755
     14 C12         4.7365    0.0658   -0.1297 C.2       1 <0>         0.5110
     15 O3          4.8997    1.2667   -0.2188 O.2       1 <0>        -0.4797
     16 N1          3.5410   -0.5484   -0.0701 N.am      1 <0>        -0.5013
     17 C13         3.7802   -1.9932    0.0261 C.3       1 <0>         0.2698
     18 H1          3.2980   -2.5119   -0.8156 H         1 <0>         0.0953
     19 C14         3.1956   -2.5311    1.3067 C.ar      1 <0>        -0.0728
     20 C15         3.3778   -1.8434    2.4922 C.ar      1 <0>        -0.0406
     21 C16         2.8375   -2.3343    3.6659 C.ar      1 <0>        -0.1162
     22 C17         2.1234   -3.5181    3.6561 C.ar      1 <0>        -0.0578
     23 C18         1.9462   -4.2085    2.4720 C.ar      1 <0>        -0.0429
     24 C19         2.4822   -3.7148    1.2971 C.ar      1 <0>        -0.0341
     25 N2          1.1821   -5.4762    2.4616 N.pl3     1 <0>         0.0347
     26 O4          1.1041   -6.1319    1.4382 O.2       1 <0>        -0.1612
     27 O5          0.6313   -5.8636    3.4765 O.3       1 <0>        -0.1707
     28 C20         2.3002    0.0742   -0.1004 C.2       1 <0>         0.3212
     29 N3          1.0820   -0.4482   -0.0533 N.2       1 <0>        -0.3215
     30 N4          0.0475    0.2721   -0.0930 N.2       1 <0>        -0.2548
     31 C21         0.1099    1.5861   -0.1837 C.2       1 <0>         0.0256
     32 S1          1.8858    1.8124   -0.2158 S.3       1 <0>         0.0159
     33 C22        -0.9976    2.6060   -0.2486 C.3       1 <0>        -0.0525
     34 O6          7.1454   -0.6578   -0.0995 O.3       1 <0>        -0.6258
     35 H2          4.1090   -7.6979   -7.0254 H         1 <0>         0.0777
     36 H3          4.3014   -8.8446   -5.6561 H         1 <0>         0.0665
     37 H4          5.7499   -8.2259   -6.5198 H         1 <0>         0.0657
     38 H5          5.2548   -5.9267   -5.7032 H         1 <0>         0.0632
     39 H6          3.8063   -6.5454   -4.8395 H         1 <0>         0.0652
     40 H7          6.8750   -7.5595   -1.8074 H         1 <0>         0.1316
     41 H8          7.0430   -5.9358    0.0285 H         1 <0>         0.1371
     42 H9          4.7503   -3.1235   -2.2655 H         1 <0>         0.1341
     43 H10         4.5986   -4.7527   -4.0979 H         1 <0>         0.1289
     44 H11         3.9391   -0.9208    2.5006 H         1 <0>         0.1323
     45 H12         2.9764   -1.7950    4.5913 H         1 <0>         0.1452
     46 H13         1.7045   -3.9036    4.5739 H         1 <0>         0.1501
     47 H14         2.3437   -4.2543    0.3718 H         1 <0>         0.1521
     48 H15        -0.5638    3.6143   -0.3200 H         1 <0>         0.0864
     49 H16        -1.6144    2.5357    0.6595 H         1 <0>         0.0937
     50 H17        -1.6230    2.4124   -1.1326 H         1 <0>         0.0940
@<TRIPOS>BOND
     1    1    2 1
     2    1   35 1
     3    1   36 1
     4    1   37 1
     5    2    3 1
     6    2   38 1
     7    2   39 1
     8    3    4 1
     9    4    9 ar
    10    4    5 ar
    11    5    6 ar
    12    5   40 1
    13    6    7 ar
    14    6   41 1
    15    7    8 ar
    16    7   10 1
    17    8    9 ar
    18    8   42 1
    19    9   43 1
    20   10   11 2
    21   10   12 1
    22   12   17 1
    23   12   13 2
    24   13   14 1
    25   13   34 1
    26   14   15 2
    27   14   16 am
    28   16   17 1
    29   16   28 1
    30   17   18 1
    31   17   19 1
    32   19   24 ar
    33   19   20 ar
    34   20   21 ar
    35   20   44 1
    36   21   22 ar
    37   21   45 1
    38   22   23 ar
    39   22   46 1
    40   23   24 ar
    41   23   25 1
    42   24   47 1
    43   25   26 2
    44   25   27 1
    45   28   32 1
    46   28   29 2
    47   29   30 1
    48   30   31 2
    49   31   32 1
    50   31   33 1
    51   33   48 1
    52   33   49 1
    53   33   50 1
@<TRIPOS>MOLECULE
ZINC39630293
   50    52     0     0     0
SMALL
USER_CHARGES

@<TRIPOS>ATOM
      1 C1         -1.1783    2.0492    0.0279 C.3       1 <0>        -0.1531
      2 C2         -0.9669    0.5361    0.1101 C.3       1 <0>         0.0589
      3 O1         -2.2274   -0.1277   -0.0020 O.3       1 <0>        -0.3389
      4 C3         -2.2167   -1.4689    0.0516 C.2       1 <0>         0.4924
      5 O2         -1.1717   -2.0597    0.1890 O.2       1 <0>        -0.4703
      6 C4         -3.5080   -2.2378   -0.0598 C.3       1 <0>        -0.0769
      7 H1         -4.2341   -1.6921   -0.6623 H         1 <0>         0.1872
      8 C5         -3.2679   -3.6205   -0.6220 C.2       1 <0>         0.0661
      9 C6         -3.5791   -4.6714    0.1514 C.2       1 <0>        -0.2893
     10 C7         -4.1330   -4.3955    1.4942 C.2       1 <0>         0.2679
     11 N1         -4.4577   -5.3811    2.2967 N.2       1 <0>        -0.5065
     12 C8         -4.3016   -6.6447    1.9341 C.2       1 <0>         0.4667
     13 N2         -3.8207   -7.0084    0.7696 N.2       1 <0>        -0.5727
     14 C9         -3.4409   -6.1292   -0.1635 C.2       1 <0>         0.5541
     15 O3         -2.9974   -6.5021   -1.2364 O.2       1 <0>        -0.4302
     16 C10        -4.6971   -7.7218    2.9111 C.3       1 <0>        -0.0426
     17 H2         -5.4502   -7.3323    3.5961 H         1 <0>         0.1275
     18 C11        -3.4671   -8.1668    3.7049 C.3       1 <0>        -0.1359
     19 S1         -5.3778   -9.1388    2.0060 S.3       1 <0>         0.0374
     20 C12        -5.9222  -10.2334    3.2749 C.ar      1 <0>         0.1146
     21 C13        -6.5117  -11.4654    2.9324 C.ar      1 <0>        -0.1345
     22 C14        -6.9358  -12.3183    3.9604 C.ar      1 <0>        -0.0194
     23 C15        -6.7556  -11.9099    5.2691 C.ar      1 <0>        -0.1818
     24 C16        -6.1677  -10.6834    5.5267 C.ar      1 <0>         0.1157
     25 N3         -5.7700   -9.8959    4.5472 N.ar      1 <0>        -0.4980
     26 C17        -5.9732  -10.2424    6.9546 C.3       1 <0>        -0.0924
     27 C18        -7.5731  -13.6475    3.6472 C.3       1 <0>        -0.1093
     28 C19        -6.6794  -11.8494    1.5236 C.2       1 <0>         0.5325
     29 O4         -5.8358  -12.5453    0.9745 O.co2     1 <0>        -0.6728
     30 O5         -7.6627  -11.4733    0.8998 O.co2     1 <0>        -0.6747
     31 S2         -4.1900   -2.6237    1.6037 S.3       1 <0>         0.0642
     32 C20        -2.6989   -3.8117   -2.0043 C.3       1 <0>        -0.1356
     33 H3         -0.2168    2.5555    0.1134 H         1 <0>         0.0836
     34 H4         -1.6375    2.3005   -0.9282 H         1 <0>         0.0690
     35 H5         -1.8311    2.3695    0.8399 H         1 <0>         0.0695
     36 H6         -0.3141    0.2158   -0.7019 H         1 <0>         0.0740
     37 H7         -0.5076    0.2848    1.0661 H         1 <0>         0.0743
     38 H8         -3.7531   -8.9459    4.4116 H         1 <0>         0.0943
     39 H9         -2.7140   -8.5562    3.0200 H         1 <0>         0.0685
     40 H10        -3.0581   -7.3153    4.2488 H         1 <0>         0.0608
     41 H11        -7.0717  -12.5433    6.0847 H         1 <0>         0.1271
     42 H12        -5.0007  -10.5823    7.3106 H         1 <0>         0.0704
     43 H13        -6.0201   -9.1548    7.0085 H         1 <0>         0.0705
     44 H14        -6.7583  -10.6712    7.5774 H         1 <0>         0.0687
     45 H15        -6.7957  -14.3952    3.4903 H         1 <0>         0.0752
     46 H16        -8.2071  -13.9518    4.4800 H         1 <0>         0.0627
     47 H17        -8.1776  -13.5570    2.7446 H         1 <0>         0.0768
     48 H18        -1.6112   -3.8515   -1.9471 H         1 <0>         0.1064
     49 H19        -3.0750   -4.7436   -2.4263 H         1 <0>         0.1121
     50 H20        -2.9991   -2.9781   -2.6392 H         1 <0>         0.0857
@<TRIPOS>BOND
     1    1    2 1
     2    1   33 1
     3    1   34 1
     4    1   35 1
     5    2    3 1
     6    2   36 1
     7    2   37 1
     8    3    4 1
     9    4    5 2
    10    4    6 1
    11    6    7 1
    12    6   31 1
    13    6    8 1
    14    8    9 2
    15    8   32 1
    16    9   14 1
    17    9   10 1
    18   10   11 2
    19   10   31 1
    20   11   12 1
    21   12   13 2
    22   12   16 1
    23   13   14 1
    24   14   15 2
    25   16   17 1
    26   16   18 1
    27   16   19 1
    28   18   38 1
    29   18   39 1
    30   18   40 1
    31   19   20 1
    32   20   25 ar
    33   20   21 ar
    34   21   22 ar
    35   21   28 1
    36   22   23 ar
    37   22   27 1
    38   23   24 ar
    39   23   41 1
    40   24   25 ar
    41   24   26 1
    42   26   42 1
    43   26   43 1
    44   26   44 1
    45   27   45 1
    46   27   46 1
    47   27   47 1
    48   28   29 2
    49   28   30 1
    50   32   48 1
    51   32   49 1
    52   32   50 1
@<TRIPOS>MOLECULE
ZINC58017104
   48    51     0     0     0
SMALL
USER_CHARGES

@<TRIPOS>ATOM
      1 C1         -0.0187    1.5258    0.0104 C.3       1 <0>        -0.1520
      2 C2          0.0021   -0.0041    0.0020 C.3       1 <0>         0.0603
      3 O1          0.6932   -0.4774    1.1597 O.3       1 <0>        -0.3375
      4 C3          0.8011   -1.8128    1.3044 C.2       1 <0>         0.5635
      5 O2          0.3214   -2.5549    0.4705 O.2       1 <0>        -0.5093
      6 C4          1.5014   -2.3736    2.4752 C.2       1 <0>        -0.0324
      7 C5          1.6988   -3.7462    2.7594 C.2       1 <0>        -0.1742
      8 C6          2.3848   -3.7806    3.9256 C.2       1 <0>        -0.0255
      9 N1          2.5831   -2.4933    4.3117 N.pl3     1 <0>        -0.1804
     10 N2          2.0669   -1.6901    3.4520 N.2       1 <0>        -0.2335
     11 C7          3.2580   -2.0988    5.4753 C.ar      1 <0>        -0.0102
     12 C8          3.7877   -3.0573    6.3295 C.ar      1 <0>        -0.0667
     13 C9          4.4522   -2.6691    7.4751 C.ar      1 <0>        -0.1623
     14 C10         4.5912   -1.3194    7.7739 C.ar      1 <0>         0.2937
     15 C11         4.0612   -0.3608    6.9192 C.ar      1 <0>        -0.2508
     16 C12         3.4017   -0.7494    5.7708 C.ar      1 <0>        -0.0331
     17 N3          5.2636   -0.9261    8.9340 N.2       1 <0>        -1.0785
     18 S1          5.4292    0.6827    9.2900 S.o2      1 <0>         2.6065
     19 O3          6.2684    1.2365    8.2858 O.2       1 <0>        -1.0178
     20 O4          4.1227    1.1778    9.5493 O.2       1 <0>        -1.0174
     21 C13         6.3193    0.7917   10.8067 C.ar      1 <0>        -0.6073
     22 C14         5.6333    0.8003   12.0088 C.ar      1 <0>        -0.0008
     23 C15         6.3240    0.8855   13.2020 C.ar      1 <0>        -0.1242
     24 C16         7.7080    0.9622   13.1934 C.ar      1 <0>         0.1048
     25 C17         8.4001    0.9532   11.9827 C.ar      1 <0>         0.0091
     26 C18         7.6986    0.8625   10.7906 C.ar      1 <0>         0.0243
     27 O5          9.7214    1.0385   12.2737 O.3       1 <0>        -0.2311
     28 C19         9.8765    1.0997   13.6055 C.2       1 <0>         0.6354
     29 O6         10.9422    1.1825   14.1853 O.2       1 <0>        -0.4900
     30 N4          8.6681    1.0556   14.2007 N.am      1 <0>        -0.5507
     31 C20         8.4102    1.0975   15.6422 C.3       1 <0>         0.0994
     32 H1          1.0039    1.9031    0.0027 H         1 <0>         0.0676
     33 H2         -0.5459    1.8868   -0.8726 H         1 <0>         0.0773
     34 H3         -0.5289    1.8773    0.9072 H         1 <0>         0.0676
     35 H4         -1.0205   -0.3814    0.0098 H         1 <0>         0.0667
     36 H5          0.5123   -0.3556   -0.8948 H         1 <0>         0.0667
     37 H6          1.3705   -4.5892    2.1695 H         1 <0>         0.1632
     38 H7          2.7126   -4.6655    4.4510 H         1 <0>         0.1847
     39 H8          3.6793   -4.1064    6.0974 H         1 <0>         0.1199
     40 H9          4.8638   -3.4145    8.1395 H         1 <0>         0.1288
     41 H10         4.1688    0.6885    7.1514 H         1 <0>         0.1107
     42 H11         2.9935   -0.0042    5.1041 H         1 <0>         0.1254
     43 H12         4.5550    0.7405   12.0139 H         1 <0>         0.1561
     44 H13         5.7871    0.8928   14.1390 H         1 <0>         0.1415
     45 H14         8.2297    0.8514    9.8503 H         1 <0>         0.1575
     46 H15         8.4038    0.0827   16.0398 H         1 <0>         0.0755
     47 H16         9.1921    1.6758   16.1345 H         1 <0>         0.0911
     48 H17         7.4427    1.5654   15.8247 H         1 <0>         0.0885
@<TRIPOS>BOND
     1    1    2 1
     2    1   32 1
     3    1   33 1
     4    1   34 1
     5    2    3 1
     6    2   35 1
     7    2   36 1
     8    3    4 1
     9    4    5 2
    10    4    6 1
    11    6   10 2
    12    6    7 1
    13    7    8 2
    14    7   37 1
    15    8    9 1
    16    8   38 1
    17    9   10 1
    18    9   11 1
    19   11   16 ar
    20   11   12 ar
    21   12   13 ar
    22   12   39 1
    23   13   14 ar
    24   13   40 1
    25   14   15 ar
    26   14   17 1
    27   15   16 ar
    28   15   41 1
    29   16   42 1
    30   17   18 1
    31   18   19 2
    32   18   20 2
    33   18   21 1
    34   21   26 ar
    35   21   22 ar
    36   22   23 ar
    37   22   43 1
    38   23   24 ar
    39   23   44 1
    40   24   30 1
    41   24   25 ar
    42   25   26 ar
    43   25   27 1
    44   26   45 1
    45   27   28 1
    46   28   29 2
    47   28   30 am
    48   30   31 1
    49   31   46 1
    50   31   47 1
    51   31   48 1
@<TRIPOS>MOLECULE
ZINC09969744
   65    68     0     0     0
SMALL
USER_CHARGES
5-[[4-[3-(3,5-dimethylphenoxy)propoxy]-3-ethoxy-phenyl]methylene]-3-phenyl-2-thioxo-thiazolidin-4-one
@<TRIPOS>ATOM
      1 C1         -6.2283   -0.9280    1.6236 C.3       1 <0>        -0.1527
      2 C2         -4.8321   -0.3803    1.3209 C.3       1 <0>         0.0519
      3 O1         -4.9217    1.0145    1.0234 O.3       1 <0>        -0.3021
      4 C3         -3.7607    1.6589    0.7298 C.ar      1 <0>         0.0956
      5 C4         -2.5677    0.9634    0.7236 C.ar      1 <0>        -0.1347
      6 C5         -1.3737    1.6316    0.4260 C.ar      1 <0>        -0.1054
      7 C6         -1.3980    2.9990    0.1256 C.ar      1 <0>        -0.0356
      8 C7         -2.5936    3.6832    0.1291 C.ar      1 <0>        -0.1816
      9 C8         -3.7761    3.0206    0.4300 C.ar      1 <0>         0.1354
     10 O2         -4.9520    3.7010    0.4319 O.3       1 <0>        -0.2948
     11 C9         -4.8962    5.0934    0.1155 C.3       1 <0>         0.0613
     12 C10        -6.3062    5.6851    0.1675 C.3       1 <0>        -0.1195
     13 C11        -6.2466    7.1759   -0.1712 C.3       1 <0>         0.0652
     14 O3         -7.5635    7.7285   -0.1227 O.3       1 <0>        -0.3115
     15 C12        -7.6874    9.0530   -0.4006 C.ar      1 <0>         0.1375
     16 C13        -6.5639    9.8066   -0.7081 C.ar      1 <0>        -0.2169
     17 C14        -6.6934   11.1514   -0.9963 C.ar      1 <0>        -0.0424
     18 C15        -7.9398   11.7492   -0.9664 C.ar      1 <0>        -0.1592
     19 C16        -9.0603   11.0016   -0.6547 C.ar      1 <0>        -0.0418
     20 C17        -8.9370    9.6551   -0.3718 C.ar      1 <0>        -0.1591
     21 C18       -10.4174   11.6561   -0.6240 C.3       1 <0>        -0.1168
     22 C19        -5.4743   11.9690   -1.3374 C.3       1 <0>        -0.1175
     23 C20        -0.1009    0.8993    0.4231 C.2       1 <0>         0.1061
     24 C21         1.0087    1.4648    0.9634 C.2       1 <0>        -0.2496
     25 C22         1.1459    2.7129    1.7399 C.2       1 <0>         0.5355
     26 O4          0.1863    3.4182    1.9914 O.2       1 <0>        -0.4339
     27 N1          2.3642    3.0262    2.1479 N.am      1 <0>        -0.4772
     28 C23         3.4248    2.2422    1.8666 C.2       1 <0>         0.2739
     29 S1          5.0641    2.4746    2.3022 S.2       1 <0>        -0.3101
     30 S2          2.7041    0.8987    0.9371 S.3       1 <0>         0.0760
     31 C24         2.5573    4.1992    2.8897 C.ar      1 <0>         0.0898
     32 C25         2.9227    4.1242    4.2271 C.ar      1 <0>        -0.0811
     33 C26         3.1180    5.2822    4.9541 C.ar      1 <0>        -0.1063
     34 C27         2.9388    6.5153    4.3544 C.ar      1 <0>        -0.0962
     35 C28         2.5694    6.5932    3.0241 C.ar      1 <0>        -0.1091
     36 C29         2.3782    5.4388    2.2903 C.ar      1 <0>        -0.0853
     37 H1         -6.1600   -1.9919    1.8505 H         1 <0>         0.0797
     38 H2         -6.6479   -0.4000    2.4799 H         1 <0>         0.0673
     39 H3         -6.8717   -0.7821    0.7559 H         1 <0>         0.0677
     40 H4         -4.4125   -0.9083    0.4646 H         1 <0>         0.0628
     41 H5         -4.1887   -0.5262    2.1886 H         1 <0>         0.0617
     42 H6         -2.5552   -0.0922    0.9516 H         1 <0>         0.1428
     43 H7         -0.4797    3.5171   -0.1085 H         1 <0>         0.1253
     44 H8         -2.6112    4.7378   -0.1030 H         1 <0>         0.1395
     45 H9         -4.2606    5.6051    0.8382 H         1 <0>         0.0686
     46 H10        -4.4848    5.2224   -0.8856 H         1 <0>         0.0685
     47 H11        -6.9418    5.1735   -0.5552 H         1 <0>         0.0886
     48 H12        -6.7177    5.5562    1.1686 H         1 <0>         0.0885
     49 H13        -5.6110    7.6876    0.5515 H         1 <0>         0.0662
     50 H14        -5.8351    7.3049   -1.1723 H         1 <0>         0.0662
     51 H15        -5.5895    9.3412   -0.7267 H         1 <0>         0.1259
     52 H16        -8.0383   12.8018   -1.1873 H         1 <0>         0.1238
     53 H17        -9.8126    9.0715   -0.1287 H         1 <0>         0.1303
     54 H18       -10.6156   12.0349    0.3786 H         1 <0>         0.0745
     55 H19       -10.4387   12.4819   -1.3352 H         1 <0>         0.0698
     56 H20       -11.1796   10.9249   -0.8934 H         1 <0>         0.0694
     57 H21        -5.0504   12.3875   -0.4246 H         1 <0>         0.0735
     58 H22        -4.7344   11.3329   -1.8232 H         1 <0>         0.0664
     59 H23        -5.7563   12.7781   -2.0112 H         1 <0>         0.0698
     60 H24        -0.0465   -0.0872   -0.0129 H         1 <0>         0.1617
     61 H25         3.0581    3.1614    4.6974 H         1 <0>         0.1270
     62 H26         3.4062    5.2246    5.9934 H         1 <0>         0.1356
     63 H27         3.0881    7.4194    4.9261 H         1 <0>         0.1329
     64 H28         2.4299    7.5576    2.5586 H         1 <0>         0.1342
     65 H29         2.0901    5.5002    1.2513 H         1 <0>         0.1241
@<TRIPOS>BOND
     1    1    2 1
     2    1   37 1
     3    1   38 1
     4    1   39 1
     5    2    3 1
     6    2   40 1
     7    2   41 1
     8    3    4 1
     9    4    9 ar
    10    4    5 ar
    11    5    6 ar
    12    5   42 1
    13    6    7 ar
    14    6   23 1
    15    7    8 ar
    16    7   43 1
    17    8    9 ar
    18    8   44 1
    19    9   10 1
    20   10   11 1
    21   11   12 1
    22   11   45 1
    23   11   46 1
    24   12   13 1
    25   12   47 1
    26   12   48 1
    27   13   14 1
    28   13   49 1
    29   13   50 1
    30   14   15 1
    31   15   20 ar
    32   15   16 ar
    33   16   17 ar
    34   16   51 1
    35   17   18 ar
    36   17   22 1
    37   18   19 ar
    38   18   52 1
    39   19   20 ar
    40   19   21 1
    41   20   53 1
    42   21   54 1
    43   21   55 1
    44   21   56 1
    45   22   57 1
    46   22   58 1
    47   22   59 1
    48   23   24 2
    49   23   60 1
    50   24   30 1
    51   24   25 1
    52   25   26 2
    53   25   27 am
    54   27   28 1
    55   27   31 1
    56   28   29 2
    57   28   30 1
    58   31   36 ar
    59   31   32 ar
    60   32   33 ar
    61   32   61 1
    62   33   34 ar
    63   33   62 1
    64   34   35 ar
    65   34   63 1
    66   35   36 ar
    67   35   64 1
    68   36   65 1
@<TRIPOS>MOLECULE
ZINC16735189
   60    63     0     0     0
SMALL
USER_CHARGES
(5Z)-2-[(E)-2-(4-chlorophenyl)vinyl]-5-[(4-hexoxy-3-methoxy-phenyl)methylene]thiazolo[2,3-e][1,2,4]triazol-6-one
@<TRIPOS>ATOM
      1 C1         10.4671  -11.9824    0.8065 C.3       1 <0>        -0.1550
      2 C2          9.5315  -10.7742    0.7290 C.3       1 <0>        -0.1257
      3 C3          8.0827  -11.2565    0.6334 C.3       1 <0>        -0.1202
      4 C4          7.1471  -10.0484    0.5558 C.3       1 <0>        -0.1172
      5 C5          5.6982  -10.5306    0.4603 C.3       1 <0>        -0.1197
      6 C6          4.7627   -9.3225    0.3827 C.3       1 <0>         0.0538
      7 O1          3.4095   -9.7729    0.2935 O.3       1 <0>        -0.2951
      8 C7          2.4457   -8.8187    0.2166 C.ar      1 <0>         0.1432
      9 C8          2.7990   -7.4757    0.2271 C.ar      1 <0>        -0.1810
     10 C9          1.8267   -6.5033    0.1494 C.ar      1 <0>        -0.0573
     11 C10         0.4776   -6.8685    0.0596 C.ar      1 <0>        -0.1062
     12 C11         0.1224   -8.2233    0.0545 C.ar      1 <0>        -0.1383
     13 C12         1.1047   -9.1909    0.1279 C.ar      1 <0>         0.1054
     14 O2          0.7639  -10.5074    0.1189 O.3       1 <0>        -0.2982
     15 C13        -0.6281  -10.8166    0.0259 C.3       1 <0>         0.0175
     16 C14        -0.5611   -5.8348   -0.0228 C.2       1 <0>         0.1081
     17 C15        -1.8480   -6.1840   -0.2842 C.2       1 <0>        -0.2412
     18 C16        -3.0633   -5.3579   -0.2630 C.2       1 <0>         0.5694
     19 O3         -3.0152   -4.1748    0.0189 O.2       1 <0>        -0.4352
     20 N1         -4.2263   -5.9517   -0.5642 N.am      1 <0>        -0.4182
     21 C17        -4.2273   -7.2832   -0.8735 C.2       1 <0>         0.2557
     22 S1         -2.5226   -7.7723   -0.7478 S.3       1 <0>         0.1560
     23 N2         -5.4422   -7.6741   -1.1352 N.2       1 <0>        -0.4624
     24 C18        -6.2800   -6.6307   -1.0107 C.2       1 <0>         0.2910
     25 N3         -5.5907   -5.5652   -0.6723 N.2       1 <0>        -0.2547
     26 C19        -7.7370   -6.6737   -1.2257 C.2       1 <0>        -0.0923
     27 C20        -8.3303   -7.8263   -1.5763 C.2       1 <0>        -0.0334
     28 C21        -9.7875   -7.8693   -1.7913 C.ar      1 <0>        -0.0670
     29 C22       -10.5559   -6.7137   -1.6256 C.ar      1 <0>        -0.0915
     30 C23       -11.9183   -6.7599   -1.8331 C.ar      1 <0>        -0.1103
     31 C24       -12.5269   -7.9502   -2.1951 C.ar      1 <0>        -0.0261
     32 C25       -11.7721   -9.1004   -2.3558 C.ar      1 <0>        -0.1116
     33 C26       -10.4081   -9.0671   -2.1562 C.ar      1 <0>        -0.0817
     34 Cl1       -14.2436   -8.0010   -2.4478 Cl        1 <0>        -0.0647
     35 H1         11.4993  -11.6388    0.8746 H         1 <0>         0.0542
     36 H2         10.2226  -12.5752    1.6879 H         1 <0>         0.0540
     37 H3         10.3459  -12.5938   -0.0877 H         1 <0>         0.0541
     38 H4          9.7760  -10.1814   -0.1524 H         1 <0>         0.0612
     39 H5          9.6527  -10.1628    1.6231 H         1 <0>         0.0612
     40 H6          7.8382  -11.8493    1.5148 H         1 <0>         0.0640
     41 H7          7.9615  -11.8679   -0.2608 H         1 <0>         0.0641
     42 H8          7.3916   -9.4555   -0.3256 H         1 <0>         0.0658
     43 H9          7.2683   -9.4369    1.4500 H         1 <0>         0.0658
     44 H10         5.4538  -11.1235    1.3417 H         1 <0>         0.0760
     45 H11         5.5770  -11.1420   -0.4339 H         1 <0>         0.0761
     46 H12         5.0071   -8.7296   -0.4987 H         1 <0>         0.0669
     47 H13         4.8839   -8.7111    1.2769 H         1 <0>         0.0668
     48 H14         3.8390   -7.1930    0.2967 H         1 <0>         0.1476
     49 H15         2.1045   -5.4596    0.1574 H         1 <0>         0.1444
     50 H16        -0.9167   -8.5105   -0.0102 H         1 <0>         0.1378
     51 H17        -0.7610  -11.8985    0.0287 H         1 <0>         0.1096
     52 H18        -1.1541  -10.3838    0.8768 H         1 <0>         0.0600
     53 H19        -1.0311  -10.4035   -0.8988 H         1 <0>         0.0577
     54 H20        -0.3026   -4.7965    0.1243 H         1 <0>         0.1715
     55 H21        -8.3285   -5.7792   -1.0970 H         1 <0>         0.1493
     56 H22        -7.7394   -8.7217   -1.7007 H         1 <0>         0.1416
     57 H23       -10.0831   -5.7858   -1.3394 H         1 <0>         0.1380
     58 H24       -12.5127   -5.8668   -1.7090 H         1 <0>         0.1380
     59 H25       -12.2529  -10.0254   -2.6379 H         1 <0>         0.1385
     60 H26        -9.8208   -9.9648   -2.2812 H         1 <0>         0.1396
@<TRIPOS>BOND
     1    1    2 1
     2    1   35 1
     3    1   36 1
     4    1   37 1
     5    2    3 1
     6    2   38 1
     7    2   39 1
     8    3    4 1
     9    3   40 1
    10    3   41 1
    11    4    5 1
    12    4   42 1
    13    4   43 1
    14    5    6 1
    15    5   44 1
    16    5   45 1
    17    6    7 1
    18    6   46 1
    19    6   47 1
    20    7    8 1
    21    8   13 ar
    22    8    9 ar
    23    9   10 ar
    24    9   48 1
    25   10   11 ar
    26   10   49 1
    27   11   12 ar
    28   11   16 1
    29   12   13 ar
    30   12   50 1
    31   13   14 1
    32   14   15 1
    33   15   51 1
    34   15   52 1
    35   15   53 1
    36   16   17 2
    37   16   54 1
    38   17   22 1
    39   17   18 1
    40   18   19 2
    41   18   20 am
    42   20   25 1
    43   20   21 1
    44   21   22 1
    45   21   23 2
    46   23   24 1
    47   24   25 2
    48   24   26 1
    49   26   27 2
    50   26   55 1
    51   27   28 1
    52   27   56 1
    53   28   33 ar
    54   28   29 ar
    55   29   30 ar
    56   29   57 1
    57   30   31 ar
    58   30   58 1
    59   31   32 ar
    60   31   34 1
    61   32   33 ar
    62   32   59 1
    63   33   60 1
@<TRIPOS>MOLECULE
ZINC35065274
   74    76     0     0     0
SMALL
USER_CHARGES

@<TRIPOS>ATOM
      1 C1          2.7034   -1.5564   -1.0289 C.3       1 <0>        -0.1154
      2 C2          2.6475   -2.6952   -0.0434 C.ar      1 <0>        -0.0745
      3 C3          3.6121   -3.6857   -0.0769 C.ar      1 <0>        -0.0983
      4 C4          3.5645   -4.7319    0.8259 C.ar      1 <0>        -0.0903
      5 C5          2.5524   -4.7909    1.7641 C.ar      1 <0>        -0.0834
      6 C6          1.5825   -3.7981    1.8002 C.ar      1 <0>         0.0988
      7 C7          1.6364   -2.7455    0.8957 C.ar      1 <0>        -0.1042
      8 N1          0.5547   -3.8554    2.7500 N.am      1 <0>        -0.4931
      9 C8          0.7382   -3.3013    3.9711 C.2       1 <0>         0.5478
     10 O1          1.7833   -2.7505    4.2649 O.2       1 <0>        -0.4928
     11 C9         -0.3737   -3.3900    4.9287 C.ar      1 <0>        -0.1937
     12 C10        -0.2863   -2.8515    6.2110 C.ar      1 <0>        -0.0399
     13 C11        -1.3589   -2.9626    7.0683 C.ar      1 <0>        -0.1354
     14 C12        -2.5222   -3.6052    6.6646 C.ar      1 <0>        -0.0713
     15 C13        -2.6287   -4.1443    5.4024 C.ar      1 <0>        -0.1089
     16 C14        -1.5553   -4.0442    4.5148 C.ar      1 <0>         0.1502
     17 N2         -1.6177   -4.5602    3.2618 N.2       1 <0>        -0.5104
     18 C15        -0.6214   -4.4625    2.4350 C.2       1 <0>         0.3955
     19 C16        -0.7731   -5.0575    1.0587 C.3       1 <0>         0.1832
     20 H1          0.1012   -4.8091    0.4571 H         1 <0>         0.1296
     21 C17        -2.0282   -4.4896    0.3931 C.3       1 <0>        -0.1555
     22 N3         -0.8939   -6.5135    1.1667 N.am      1 <0>        -0.6002
     23 C18        -1.9967   -7.1024    1.9304 C.3       1 <0>         0.0957
     24 C19        -3.1942   -7.3282    1.0053 C.3       1 <0>         0.0378
     25 O2         -2.8555   -8.3034    0.0172 O.3       1 <0>        -0.3869
     26 C20        -3.9109   -8.5895   -0.9028 C.3       1 <0>         0.0310
     27 C21         0.0096   -7.3112    0.5636 C.2       1 <0>         0.5269
     28 O3          0.9226   -6.8237   -0.0687 O.2       1 <0>        -0.5251
     29 C22        -0.1147   -8.8090    0.6747 C.3       1 <0>        -0.1406
     30 C23         1.0285   -9.4740   -0.0946 C.3       1 <0>        -0.0745
     31 H2          1.9820   -9.0890    0.2669 H         1 <0>         0.0785
     32 C24         0.8865   -9.1657   -1.5865 C.3       1 <0>        -0.1664
     33 C25         0.9752  -10.9879    0.1206 C.3       1 <0>        -0.1036
     34 C26         2.3386  -11.5983   -0.2098 C.3       1 <0>        -0.0673
     35 C27         3.3935  -11.0382    0.7465 C.3       1 <0>        -0.1450
     36 C28         2.2673  -13.1189   -0.0564 C.3       1 <0>        -0.1420
     37 C29         2.7186  -11.2483   -1.6500 C.3       1 <0>        -0.1472
     38 H3          3.2982   -0.7438   -0.6118 H         1 <0>         0.0739
     39 H4          3.1594   -1.9012   -1.9570 H         1 <0>         0.0717
     40 H5          1.6931   -1.2006   -1.2308 H         1 <0>         0.0676
     41 H6          4.4041   -3.6421   -0.8099 H         1 <0>         0.1297
     42 H7          4.3193   -5.5038    0.7972 H         1 <0>         0.1310
     43 H8          2.5154   -5.6087    2.4685 H         1 <0>         0.1187
     44 H9          0.8857   -1.9695    0.9240 H         1 <0>         0.1244
     45 H10         0.6158   -2.3511    6.5305 H         1 <0>         0.1384
     46 H11        -1.2946   -2.5468    8.0629 H         1 <0>         0.1353
     47 H12        -3.3535   -3.6833    7.3497 H         1 <0>         0.1363
     48 H13        -3.5381   -4.6423    5.1001 H         1 <0>         0.1409
     49 H14        -2.8863   -4.6391    1.0484 H         1 <0>         0.0791
     50 H15        -1.8920   -3.4237    0.2105 H         1 <0>         0.0684
     51 H16        -2.2006   -5.0013   -0.5537 H         1 <0>         0.0754
     52 H17        -1.6784   -8.0558    2.3520 H         1 <0>         0.0854
     53 H18        -2.2825   -6.4262    2.7361 H         1 <0>         0.1233
     54 H19        -4.0431   -7.6829    1.5898 H         1 <0>         0.0599
     55 H20        -3.4568   -6.3906    0.5153 H         1 <0>         0.0613
     56 H21        -3.5747   -9.3383   -1.6200 H         1 <0>         0.0850
     57 H22        -4.7747   -8.9703   -0.3579 H         1 <0>         0.0415
     58 H23        -4.1883   -7.6780   -1.4323 H         1 <0>         0.0401
     59 H24        -0.0649   -9.1009    1.7237 H         1 <0>         0.0823
     60 H25        -1.0688   -9.1266    0.2541 H         1 <0>         0.1212
     61 H26         0.0177   -9.6897   -1.9847 H         1 <0>         0.0440
     62 H27         0.7584   -8.0921   -1.7250 H         1 <0>         0.0663
     63 H28         1.7824   -9.4955   -2.1125 H         1 <0>         0.0710
     64 H29         0.7252  -11.1985    1.1605 H         1 <0>         0.0591
     65 H30         0.2158  -11.4209   -0.5305 H         1 <0>         0.0633
     66 H31         3.1228  -11.2876    1.7724 H         1 <0>         0.0519
     67 H32         4.3648  -11.4731    0.5111 H         1 <0>         0.0526
     68 H33         3.4443   -9.9549    0.6372 H         1 <0>         0.0593
     69 H34         1.5158  -13.5180   -0.7377 H         1 <0>         0.0537
     70 H35         3.2387  -13.5538   -0.2918 H         1 <0>         0.0536
     71 H36         1.9966  -13.3683    0.9696 H         1 <0>         0.0528
     72 H37         3.0591  -10.2138   -1.6947 H         1 <0>         0.0659
     73 H38         3.5182  -11.9088   -1.9855 H         1 <0>         0.0483
     74 H39         1.8493  -11.3729   -2.2956 H         1 <0>         0.0581
@<TRIPOS>BOND
     1    1    2 1
     2    1   38 1
     3    1   39 1
     4    1   40 1
     5    2    7 ar
     6    2    3 ar
     7    3    4 ar
     8    3   41 1
     9    4    5 ar
    10    4   42 1
    11    5    6 ar
    12    5   43 1
    13    6    7 ar
    14    6    8 1
    15    7   44 1
    16    8   18 1
    17    8    9 am
    18    9   10 2
    19    9   11 1
    20   11   16 ar
    21   11   12 ar
    22   12   13 ar
    23   12   45 1
    24   13   14 ar
    25   13   46 1
    26   14   15 ar
    27   14   47 1
    28   15   16 ar
    29   15   48 1
    30   16   17 1
    31   17   18 2
    32   18   19 1
    33   19   20 1
    34   19   21 1
    35   19   22 1
    36   21   49 1
    37   21   50 1
    38   21   51 1
    39   22   23 1
    40   22   27 am
    41   23   24 1
    42   23   52 1
    43   23   53 1
    44   24   25 1
    45   24   54 1
    46   24   55 1
    47   25   26 1
    48   26   56 1
    49   26   57 1
    50   26   58 1
    51   27   28 2
    52   27   29 1
    53   29   30 1
    54   29   59 1
    55   29   60 1
    56   30   31 1
    57   30   32 1
    58   30   33 1
    59   32   61 1
    60   32   62 1
    61   32   63 1
    62   33   34 1
    63   33   64 1
    64   33   65 1
    65   34   35 1
    66   34   36 1
    67   34   37 1
    68   35   66 1
    69   35   67 1
    70   35   68 1
    71   36   69 1
    72   36   70 1
    73   36   71 1
    74   37   72 1
    75   37   73 1
    76   37   74 1
@<TRIPOS>MOLECULE
ZINC38587503
   77    81     0     0     0
SMALL
USER_CHARGES

@<TRIPOS>ATOM
      1 C1         -0.0187    1.5258    0.0104 C.3       1 <0>        -0.1516
      2 C2          0.0021   -0.0041    0.0020 C.3       1 <0>        -0.0843
      3 C3          0.7074   -0.4901   -1.2379 C.ar      1 <0>        -0.0679
      4 C4         -0.0215   -0.8171   -2.3647 C.ar      1 <0>        -0.1124
      5 C5          0.6249   -1.2630   -3.5027 C.ar      1 <0>        -0.1078
      6 C6          2.0027   -1.3828   -3.5169 C.ar      1 <0>        -0.1180
      7 C7          2.7372   -1.0570   -2.3938 C.ar      1 <0>        -0.1066
      8 C8          2.0912   -0.6041   -1.2507 C.ar      1 <0>         0.1392
      9 N1          2.8329   -0.2682   -0.1127 N.am      1 <0>        -0.5744
     10 C9          3.1864   -1.2123    0.9539 C.3       1 <0>         0.1189
     11 C10         4.3335   -0.5375    1.7382 C.3       1 <0>        -0.0235
     12 H1          5.3047   -0.8453    1.3507 H         1 <0>         0.1113
     13 C11         4.0729    0.9596    1.4522 C.3       1 <0>        -0.1399
     14 C12         3.3182    0.9594    0.1411 C.2       1 <0>         0.5272
     15 O1          3.1703    1.9267   -0.5754 O.2       1 <0>        -0.5090
     16 C13         4.2257   -0.8326    3.2120 C.2       1 <0>         0.2871
     17 N2          3.2105   -0.5187    3.9628 N.2       1 <0>        -0.4787
     18 C14         3.4401   -0.9297    5.2363 C.ar      1 <0>         0.0473
     19 C15         2.7038   -0.8526    6.4215 C.ar      1 <0>        -0.0614
     20 C16         3.2163   -1.3719    7.5763 C.ar      1 <0>        -0.1270
     21 C17         4.4650   -1.9774    7.5872 C.ar      1 <0>        -0.0974
     22 C18         5.2091   -2.0649    6.4300 C.ar      1 <0>        -0.1118
     23 C19         4.7042   -1.5431    5.2467 C.ar      1 <0>         0.0528
     24 N3          5.1733   -1.4712    3.9503 N.pl3     1 <0>        -0.4832
     25 C20         6.4553   -1.9843    3.4610 C.3       1 <0>         0.1089
     26 C21         7.5228   -0.8959    3.5894 C.3       1 <0>        -0.1352
     27 C22         8.8616   -1.4318    3.0784 C.3       1 <0>        -0.1158
     28 C23         9.9292   -0.3433    3.2067 C.3       1 <0>         0.0609
     29 O2         11.1796   -0.8439    2.7295 O.3       1 <0>        -0.3159
     30 C24        12.2410    0.0037    2.7741 C.ar      1 <0>         0.1239
     31 C25        12.0835    1.2887    3.2725 C.ar      1 <0>        -0.2055
     32 C26        13.1641    2.1482    3.3173 C.ar      1 <0>        -0.0751
     33 C27        14.4017    1.7288    2.8655 C.ar      1 <0>        -0.1055
     34 C28        14.5612    0.4487    2.3679 C.ar      1 <0>        -0.0814
     35 C29        13.4852   -0.4167    2.3267 C.ar      1 <0>        -0.1492
     36 C30        15.5787    2.6686    2.9151 C.3       1 <0>        -0.0265
     37 C31        15.8359    3.0880    4.3638 C.3       1 <0>        -0.1395
     38 C32        16.8182    1.9635    2.3606 C.3       1 <0>        -0.1460
     39 C33        15.2771    3.9087    2.0711 C.3       1 <0>        -0.1397
     40 H2          1.0039    1.9031    0.0027 H         1 <0>         0.0645
     41 H3         -0.5459    1.8868   -0.8726 H         1 <0>         0.0545
     42 H4         -0.5289    1.8773    0.9072 H         1 <0>         0.0577
     43 H5          0.5293   -0.3651    0.8851 H         1 <0>         0.0724
     44 H6         -1.0205   -0.3814    0.0098 H         1 <0>         0.0726
     45 H7         -1.0975   -0.7247   -2.3568 H         1 <0>         0.1277
     46 H8          0.0527   -1.5188   -4.3822 H         1 <0>         0.1269
     47 H9          2.5047   -1.7317   -4.4072 H         1 <0>         0.1277
     48 H10         3.8130   -1.1510   -2.4055 H         1 <0>         0.1239
     49 H11         2.3305   -1.3805    1.6076 H         1 <0>         0.0898
     50 H12         3.5260   -2.1553    0.5256 H         1 <0>         0.0868
     51 H13         3.4679    1.3997    2.2450 H         1 <0>         0.1231
     52 H14         5.0151    1.4975    1.3468 H         1 <0>         0.1093
     53 H15         1.7313   -0.3828    6.4245 H         1 <0>         0.1297
     54 H16         2.6442   -1.3103    8.4902 H         1 <0>         0.1305
     55 H17         4.8566   -2.3826    8.5086 H         1 <0>         0.1309
     56 H18         6.1801   -2.5375    6.4438 H         1 <0>         0.1216
     57 H19         6.7485   -2.8523    4.0516 H         1 <0>         0.0966
     58 H20         6.3554   -2.2737    2.4149 H         1 <0>         0.0973
     59 H21         7.2296   -0.0279    2.9987 H         1 <0>         0.0755
     60 H22         7.6227   -0.6065    4.6355 H         1 <0>         0.0764
     61 H23         9.1548   -2.2997    3.6690 H         1 <0>         0.0798
     62 H24         8.7617   -1.7212    2.0322 H         1 <0>         0.0800
     63 H25         9.6360    0.5246    2.6161 H         1 <0>         0.0632
     64 H26        10.0291   -0.0540    4.2528 H         1 <0>         0.0628
     65 H27        11.1168    1.6171    3.6248 H         1 <0>         0.1254
     66 H28        13.0420    3.1487    3.7052 H         1 <0>         0.1233
     67 H29        15.5289    0.1235    2.0153 H         1 <0>         0.1337
     68 H30        13.6112   -1.4179    1.9421 H         1 <0>         0.1297
     69 H31        16.0508    2.2046    4.9651 H         1 <0>         0.0564
     70 H32        16.6872    3.7678    4.3997 H         1 <0>         0.0590
     71 H33        14.9529    3.5904    4.7589 H         1 <0>         0.0557
     72 H34        16.6350    1.6647    1.3285 H         1 <0>         0.0590
     73 H35        17.6695    2.6433    2.3964 H         1 <0>         0.0593
     74 H36        17.0331    1.0801    2.9619 H         1 <0>         0.0589
     75 H37        14.3941    4.4110    2.4661 H         1 <0>         0.0558
     76 H38        16.1284    4.5884    2.1069 H         1 <0>         0.0590
     77 H39        15.0939    3.6099    1.0390 H         1 <0>         0.0565
@<TRIPOS>BOND
     1    1    2 1
     2    1   40 1
     3    1   41 1
     4    1   42 1
     5    2    3 1
     6    2   43 1
     7    2   44 1
     8    3    8 ar
     9    3    4 ar
    10    4    5 ar
    11    4   45 1
    12    5    6 ar
    13    5   46 1
    14    6    7 ar
    15    6   47 1
    16    7    8 ar
    17    7   48 1
    18    8    9 1
    19    9   14 am
    20    9   10 1
    21   10   11 1
    22   10   49 1
    23   10   50 1
    24   11   12 1
    25   11   13 1
    26   11   16 1
    27   13   14 1
    28   13   51 1
    29   13   52 1
    30   14   15 2
    31   16   24 1
    32   16   17 2
    33   17   18 1
    34   18   23 ar
    35   18   19 ar
    36   19   20 ar
    37   19   53 1
    38   20   21 ar
    39   20   54 1
    40   21   22 ar
    41   21   55 1
    42   22   23 ar
    43   22   56 1
    44   23   24 1
    45   24   25 1
    46   25   26 1
    47   25   57 1
    48   25   58 1
    49   26   27 1
    50   26   59 1
    51   26   60 1
    52   27   28 1
    53   27   61 1
    54   27   62 1
    55   28   29 1
    56   28   63 1
    57   28   64 1
    58   29   30 1
    59   30   35 ar
    60   30   31 ar
    61   31   32 ar
    62   31   65 1
    63   32   33 ar
    64   32   66 1
    65   33   34 ar
    66   33   36 1
    67   34   35 ar
    68   34   67 1
    69   35   68 1
    70   36   37 1
    71   36   38 1
    72   36   39 1
    73   37   69 1
    74   37   70 1
    75   37   71 1
    76   38   72 1
    77   38   73 1
    78   38   74 1
    79   39   75 1
    80   39   76 1
    81   39   77 1
@<TRIPOS>MOLECULE
ZINC40044250
   74    78     0     0     0
SMALL
USER_CHARGES

@<TRIPOS>ATOM
      1 C1         -0.0187    1.5258    0.0104 C.3       1 <0>        -0.1527
      2 C2          0.0021   -0.0041    0.0020 C.3       1 <0>        -0.1215
      3 C3          0.7182   -0.4975   -1.2568 C.3       1 <0>        -0.1191
      4 C4          0.7390   -2.0273   -1.2652 C.3       1 <0>         0.0569
      5 O1          1.4078   -2.4882   -2.4409 O.3       1 <0>        -0.3017
      6 C5          1.5137   -3.8342   -2.6035 C.ar      1 <0>         0.1146
      7 C6          0.9804   -4.6922   -1.6551 C.ar      1 <0>        -0.1729
      8 C7          1.0885   -6.0602   -1.8221 C.ar      1 <0>        -0.0943
      9 C8          1.7285   -6.5756   -2.9340 C.ar      1 <0>        -0.0966
     10 C9          2.2631   -5.7251   -3.8837 C.ar      1 <0>        -0.1399
     11 C10         2.1528   -4.3529   -3.7254 C.ar      1 <0>         0.1067
     12 O2          2.6730   -3.5150   -4.6618 O.3       1 <0>        -0.3022
     13 C11         3.3149   -4.1180   -5.7871 C.3       1 <0>         0.0521
     14 C12         3.8331   -3.0255   -6.7246 C.3       1 <0>        -0.1516
     15 C13         1.8439   -8.0677   -3.1108 C.3       1 <0>         0.2339
     16 H1          2.0523   -8.3073   -4.1535 H         1 <0>         0.1174
     17 C14         2.9237   -8.6086   -2.2322 C.2       1 <0>        -0.2468
     18 C15         4.3646   -8.3375   -2.1937 C.2       1 <0>         0.4554
     19 O3          4.8911   -7.4370   -2.8231 O.2       1 <0>        -0.4312
     20 C16         5.1204   -9.2644   -1.3139 C.ar      1 <0>        -0.2082
     21 C17         6.5150   -9.2666   -1.3219 C.ar      1 <0>        -0.0309
     22 C18         7.1963  -10.1297   -0.5097 C.ar      1 <0>        -0.1043
     23 C19         6.5048  -11.0015    0.3199 C.ar      1 <0>        -0.0517
     24 C20         5.1283  -11.0114    0.3422 C.ar      1 <0>        -0.1311
     25 C21         4.4099  -10.1388   -0.4754 C.ar      1 <0>         0.1368
     26 O4          3.0584  -10.1588   -0.4305 O.3       1 <0>        -0.1815
     27 C22         2.3506   -9.4959   -1.3662 C.2       1 <0>         0.0895
     28 C23         0.9077   -9.5599   -1.6576 C.2       1 <0>         0.5717
     29 O5          0.1089  -10.2597   -1.0674 O.2       1 <0>        -0.4846
     30 N1          0.6021   -8.7281   -2.6764 N.am      1 <0>        -0.5862
     31 C24        -0.7301   -8.5184   -3.2487 C.3       1 <0>         0.1819
     32 C25        -0.9533   -9.4963   -4.3733 C.ar      1 <0>        -0.1266
     33 C26        -0.5929   -9.1589   -5.6645 C.ar      1 <0>        -0.0962
     34 C27        -0.7977  -10.0559   -6.6961 C.ar      1 <0>        -0.1243
     35 C28        -1.3625  -11.2906   -6.4365 C.ar      1 <0>        -0.0750
     36 C29        -1.7220  -11.6285   -5.1452 C.ar      1 <0>        -0.1229
     37 C30        -1.5133  -10.7331   -4.1129 C.ar      1 <0>        -0.0891
     38 C31        -1.5866  -12.2682   -7.5613 C.3       1 <0>        -0.1186
     39 C32         8.7033  -10.1350   -0.5154 C.3       1 <0>        -0.0848
     40 C33         9.2208   -9.1452    0.5303 C.3       1 <0>        -0.1503
     41 H2          1.0039    1.9031    0.0027 H         1 <0>         0.0562
     42 H3         -0.5459    1.8868   -0.8726 H         1 <0>         0.0562
     43 H4         -0.5289    1.8773    0.9072 H         1 <0>         0.0575
     44 H5          0.5293   -0.3651    0.8851 H         1 <0>         0.0646
     45 H6         -1.0205   -0.3814    0.0098 H         1 <0>         0.0647
     46 H7          0.1910   -0.1364   -2.1398 H         1 <0>         0.0746
     47 H8          1.7408   -0.1202   -1.2645 H         1 <0>         0.0745
     48 H9          1.2661   -2.3884   -0.3821 H         1 <0>         0.0616
     49 H10        -0.2836   -2.4046   -1.2575 H         1 <0>         0.0621
     50 H11         0.4806   -4.2922   -0.7853 H         1 <0>         0.1370
     51 H12         0.6724   -6.7279   -1.0822 H         1 <0>         0.1220
     52 H13         2.7629   -6.1302   -4.7511 H         1 <0>         0.1381
     53 H14         4.1500   -4.7291   -5.4447 H         1 <0>         0.0645
     54 H15         2.6003   -4.7452   -6.3200 H         1 <0>         0.0604
     55 H16         4.5477   -2.3983   -6.1916 H         1 <0>         0.0669
     56 H17         4.3227   -3.4854   -7.5829 H         1 <0>         0.0786
     57 H18         2.9979   -2.4144   -7.0670 H         1 <0>         0.0663
     58 H19         7.0546   -8.5894   -1.9675 H         1 <0>         0.1439
     59 H20         7.0533  -11.6803    0.9560 H         1 <0>         0.1431
     60 H21         4.6042  -11.6957    0.9929 H         1 <0>         0.1481
     61 H22        -1.4851   -8.6726   -2.4778 H         1 <0>         0.1017
     62 H23        -0.8048   -7.5007   -3.6319 H         1 <0>         0.1016
     63 H24        -0.1517   -8.1942   -5.8673 H         1 <0>         0.1223
     64 H25        -0.5168   -9.7920   -7.7050 H         1 <0>         0.1235
     65 H26        -2.1636  -12.5930   -4.9424 H         1 <0>         0.1238
     66 H27        -1.7908  -10.9985   -3.1035 H         1 <0>         0.1270
     67 H28        -0.7050  -12.8989   -7.6756 H         1 <0>         0.0720
     68 H29        -2.4519  -12.8910   -7.3344 H         1 <0>         0.0680
     69 H30        -1.7650  -11.7218   -8.4874 H         1 <0>         0.0678
     70 H31         9.0641  -11.1359   -0.2780 H         1 <0>         0.0778
     71 H32         9.0640   -9.8432   -1.5017 H         1 <0>         0.0769
     72 H33        10.3107   -9.1490    0.5261 H         1 <0>         0.0622
     73 H34         8.8600   -8.1443    0.2930 H         1 <0>         0.0571
     74 H35         8.8601   -9.4370    1.5166 H         1 <0>         0.0573
@<TRIPOS>BOND
     1    1    2 1
     2    1   41 1
     3    1   42 1
     4    1   43 1
     5    2    3 1
     6    2   44 1
     7    2   45 1
     8    3    4 1
     9    3   46 1
    10    3   47 1
    11    4    5 1
    12    4   48 1
    13    4   49 1
    14    5    6 1
    15    6   11 ar
    16    6    7 ar
    17    7    8 ar
    18    7   50 1
    19    8    9 ar
    20    8   51 1
    21    9   10 ar
    22    9   15 1
    23   10   11 ar
    24   10   52 1
    25   11   12 1
    26   12   13 1
    27   13   14 1
    28   13   53 1
    29   13   54 1
    30   14   55 1
    31   14   56 1
    32   14   57 1
    33   15   16 1
    34   15   30 1
    35   15   17 1
    36   17   27 2
    37   17   18 1
    38   18   19 2
    39   18   20 1
    40   20   25 ar
    41   20   21 ar
    42   21   22 ar
    43   21   58 1
    44   22   23 ar
    45   22   39 1
    46   23   24 ar
    47   23   59 1
    48   24   25 ar
    49   24   60 1
    50   25   26 1
    51   26   27 1
    52   27   28 1
    53   28   29 2
    54   28   30 am
    55   30   31 1
    56   31   32 1
    57   31   61 1
    58   31   62 1
    59   32   37 ar
    60   32   33 ar
    61   33   34 ar
    62   33   63 1
    63   34   35 ar
    64   34   64 1
    65   35   36 ar
    66   35   38 1
    67   36   37 ar
    68   36   65 1
    69   37   66 1
    70   38   67 1
    71   38   68 1
    72   38   69 1
    73   39   40 1
    74   39   70 1
    75   39   71 1
    76   40   72 1
    77   40   73 1
    78   40   74 1
@<TRIPOS>MOLECULE
ZINC13030713
   82    85     0     0     0
SMALL
USER_CHARGES
N-(2-ethyl-6-methyl-phenyl)-2-[2-[(1S)-1-(4-isobutylphenyl)ethyl]benzimidazol-1-yl]-N-[(1S)-2-methoxy-1-methyl-ethyl]acetamide
@<TRIPOS>ATOM
      1 C1         -7.3556    0.2512    0.1268 C.3       1 <0>        -0.1536
      2 C2         -7.9311    0.1895    1.5431 C.3       1 <0>        -0.0939
      3 C3         -7.6656   -1.1711    2.1343 C.ar      1 <0>        -0.0644
      4 C4         -8.4722   -2.2407    1.7974 C.ar      1 <0>        -0.1201
      5 C5         -8.2328   -3.4880    2.3437 C.ar      1 <0>        -0.1042
      6 C6         -7.1827   -3.6702    3.2251 C.ar      1 <0>        -0.1228
      7 C7         -6.3695   -2.6061    3.5619 C.ar      1 <0>        -0.0679
      8 C8         -6.6071   -1.3520    3.0145 C.ar      1 <0>         0.1376
      9 N1         -5.7849   -0.2717    3.3536 N.am      1 <0>        -0.5562
     10 C9         -6.1052    0.5546    4.5202 C.3       1 <0>         0.1343
     11 H1         -5.4271    1.4072    4.5587 H         1 <0>         0.1010
     12 C10        -7.5471    1.0542    4.4109 C.3       1 <0>        -0.1703
     13 C11        -5.9494   -0.2788    5.7938 C.3       1 <0>         0.0397
     14 O1         -4.5734   -0.6195    5.9747 O.3       1 <0>        -0.3858
     15 C12        -4.2981   -1.2917    7.2054 C.3       1 <0>         0.0291
     16 C13        -4.6983    0.0085    2.6071 C.2       1 <0>         0.5055
     17 O2         -4.3786   -0.7305    1.7001 O.2       1 <0>        -0.4924
     18 C14        -3.8806    1.2402    2.8994 C.3       1 <0>         0.0903
     19 N2         -2.6765    1.2362    2.0650 N.pl3     1 <0>        -0.4727
     20 C15        -1.4649    0.6539    2.3795 C.ar      1 <0>         0.0577
     21 C16        -0.9915   -0.0650    3.4688 C.ar      1 <0>        -0.1070
     22 C17         0.3105   -0.5178    3.4743 C.ar      1 <0>        -0.1031
     23 C18         1.1463   -0.2688    2.3949 C.ar      1 <0>        -0.1281
     24 C19         0.6961    0.4320    1.3122 C.ar      1 <0>        -0.0650
     25 C20        -0.6184    0.9054    1.2867 C.ar      1 <0>         0.0520
     26 N3         -1.3414    1.6130    0.3810 N.2       1 <0>        -0.4793
     27 C21        -2.5447    1.8061    0.8368 C.2       1 <0>         0.3055
     28 C22        -3.6335    2.5529    0.1103 C.3       1 <0>         0.0322
     29 H2         -4.5853    2.3905    0.6161 H         1 <0>         0.0855
     30 C23        -3.3088    4.0480    0.1025 C.3       1 <0>        -0.1404
     31 C24        -3.7264    2.0517   -1.3079 C.ar      1 <0>        -0.0858
     32 C25        -2.6193    2.1059   -2.1340 C.ar      1 <0>        -0.0806
     33 C26        -2.7032    1.6416   -3.4333 C.ar      1 <0>        -0.1196
     34 C27        -3.8969    1.1329   -3.9099 C.ar      1 <0>        -0.0734
     35 C28        -5.0054    1.0835   -3.0854 C.ar      1 <0>        -0.1221
     36 C29        -4.9201    1.5429   -1.7844 C.ar      1 <0>        -0.1102
     37 C30        -3.9900    0.6325   -5.3283 C.3       1 <0>        -0.0784
     38 C31        -4.4073    1.7817   -6.2482 C.3       1 <0>        -0.0895
     39 C32        -3.3081    2.8458   -6.2656 C.3       1 <0>        -0.1510
     40 C33        -4.6229    1.2478   -7.6657 C.3       1 <0>        -0.1487
     41 C34        -5.2252   -2.8056    4.5221 C.3       1 <0>        -0.1165
     42 H3         -7.8399   -0.5015   -0.4953 H         1 <0>         0.0573
     43 H4         -7.5337    1.2404   -0.2950 H         1 <0>         0.0584
     44 H5         -6.2833    0.0587    0.1615 H         1 <0>         0.0641
     45 H6         -9.0060    0.3663    1.5066 H         1 <0>         0.0737
     46 H7         -7.4580    0.9527    2.1610 H         1 <0>         0.0779
     47 H8         -9.2932   -2.1016    1.1096 H         1 <0>         0.1249
     48 H9         -8.8674   -4.3218    2.0819 H         1 <0>         0.1248
     49 H10        -6.9983   -4.6457    3.6502 H         1 <0>         0.1241
     50 H11        -8.2138    0.2073    4.2487 H         1 <0>         0.0720
     51 H12        -7.8257    1.5646    5.3328 H         1 <0>         0.0765
     52 H13        -7.6292    1.7468    3.5732 H         1 <0>         0.0764
     53 H14        -6.2964    0.2987    6.6506 H         1 <0>         0.0648
     54 H15        -6.5409   -1.1902    5.7062 H         1 <0>         0.0650
     55 H16        -4.6609   -0.6887    8.0378 H         1 <0>         0.0437
     56 H17        -4.8004   -2.2590    7.2113 H         1 <0>         0.0438
     57 H18        -3.2229   -1.4400    7.3057 H         1 <0>         0.0882
     58 H19        -3.5939    1.2449    3.9510 H         1 <0>         0.1245
     59 H20        -4.4718    2.1293    2.6800 H         1 <0>         0.1204
     60 H21        -1.6391   -0.2651    4.3097 H         1 <0>         0.1197
     61 H22         0.6813   -1.0740    4.3226 H         1 <0>         0.1278
     62 H23         2.1629   -0.6330    2.4108 H         1 <0>         0.1280
     63 H24         1.3551    0.6202    0.4774 H         1 <0>         0.1277
     64 H25        -3.2416    4.4106    1.1283 H         1 <0>         0.0591
     65 H26        -2.3570    4.2105   -0.4033 H         1 <0>         0.0726
     66 H27        -4.0963    4.5882   -0.4229 H         1 <0>         0.0717
     67 H28        -1.6879    2.5074   -1.7630 H         1 <0>         0.1360
     68 H29        -1.8372    1.6805   -4.0776 H         1 <0>         0.1195
     69 H30        -5.9381    0.6863   -3.4578 H         1 <0>         0.1175
     70 H31        -5.7862    1.5047   -1.1404 H         1 <0>         0.1208
     71 H32        -3.0192    0.2495   -5.6429 H         1 <0>         0.0713
     72 H33        -4.7308   -0.1651   -5.3844 H         1 <0>         0.0700
     73 H34        -5.3341    2.2226   -5.8811 H         1 <0>         0.0696
     74 H35        -3.1546    3.2262   -5.2558 H         1 <0>         0.0604
     75 H36        -2.3813    2.4049   -6.6327 H         1 <0>         0.0535
     76 H37        -3.6055    3.6645   -6.9210 H         1 <0>         0.0522
     77 H38        -5.4059    0.4896   -7.6532 H         1 <0>         0.0538
     78 H39        -4.9202    2.0665   -8.3210 H         1 <0>         0.0552
     79 H40        -3.6961    0.8068   -8.0327 H         1 <0>         0.0548
     80 H41        -5.5905   -2.7199    5.5454 H         1 <0>         0.0687
     81 H42        -4.7935   -3.7952    4.3721 H         1 <0>         0.0606
     82 H43        -4.4641   -2.0462    4.3430 H         1 <0>         0.0813
@<TRIPOS>BOND
     1    1    2 1
     2    1   42 1
     3    1   43 1
     4    1   44 1
     5    2    3 1
     6    2   45 1
     7    2   46 1
     8    3    8 ar
     9    3    4 ar
    10    4    5 ar
    11    4   47 1
    12    5    6 ar
    13    5   48 1
    14    6    7 ar
    15    6   49 1
    16    7    8 ar
    17    7   41 1
    18    8    9 1
    19    9   10 1
    20    9   16 am
    21   10   11 1
    22   10   12 1
    23   10   13 1
    24   12   50 1
    25   12   51 1
    26   12   52 1
    27   13   14 1
    28   13   53 1
    29   13   54 1
    30   14   15 1
    31   15   55 1
    32   15   56 1
    33   15   57 1
    34   16   17 2
    35   16   18 1
    36   18   19 1
    37   18   58 1
    38   18   59 1
    39   19   27 1
    40   19   20 1
    41   20   25 ar
    42   20   21 ar
    43   21   22 ar
    44   21   60 1
    45   22   23 ar
    46   22   61 1
    47   23   24 ar
    48   23   62 1
    49   24   25 ar
    50   24   63 1
    51   25   26 1
    52   26   27 2
    53   27   28 1
    54   28   29 1
    55   28   30 1
    56   28   31 1
    57   30   64 1
    58   30   65 1
    59   30   66 1
    60   31   36 ar
    61   31   32 ar
    62   32   33 ar
    63   32   67 1
    64   33   34 ar
    65   33   68 1
    66   34   35 ar
    67   34   37 1
    68   35   36 ar
    69   35   69 1
    70   36   70 1
    71   37   38 1
    72   37   71 1
    73   37   72 1
    74   38   39 1
    75   38   40 1
    76   38   73 1
    77   39   74 1
    78   39   75 1
    79   39   76 1
    80   40   77 1
    81   40   78 1
    82   40   79 1
    83   41   80 1
    84   41   81 1
    85   41   82 1
@<TRIPOS>MOLECULE
ZINC16458774
   76    77     0     0     0
SMALL
USER_CHARGES
(2R)-N-[2-[[1-[(2-chlorophenyl)methyl]pyrrol-2-yl]methyl-isobutyl-amino]-2-oxo-ethyl]-N,2-diethyl-hexanamide
@<TRIPOS>ATOM
      1 C1          2.3260   -5.0010   -9.2990 C.3       1 <0>        -0.1536
      2 C2          2.9918   -3.9010   -8.4699 C.3       1 <0>        -0.1253
      3 C3          2.2222   -3.7123   -7.1611 C.3       1 <0>        -0.1197
      4 C4          2.8880   -2.6123   -6.3319 C.3       1 <0>        -0.1050
      5 C5          2.1183   -2.4236   -5.0231 C.3       1 <0>        -0.1075
      6 H1          1.0692   -2.2268   -5.2437 H         1 <0>         0.0919
      7 C6          2.2321   -3.6933   -4.1770 C.3       1 <0>        -0.1121
      8 C7          1.3393   -3.5643   -2.9412 C.3       1 <0>        -0.1606
      9 C8          2.6987   -1.2593   -4.2624 C.2       1 <0>         0.5320
     10 O1          3.8796   -1.2432   -3.9867 O.2       1 <0>        -0.5350
     11 N1          1.9053   -0.2360   -3.8885 N.am      1 <0>        -0.5963
     12 C9          0.4607   -0.3060   -4.1215 C.3       1 <0>         0.1060
     13 C10         0.1486    0.1786   -5.5388 C.3       1 <0>        -0.1756
     14 C11         2.4876    0.9465   -3.2491 C.3       1 <0>         0.0973
     15 C12         2.5109    0.7496   -1.7552 C.2       1 <0>         0.5051
     16 O2          2.0832   -0.2774   -1.2722 O.2       1 <0>        -0.5138
     17 N2          3.0071    1.7147   -0.9559 N.am      1 <0>        -0.6072
     18 C13         3.0297    1.5232    0.4964 C.3       1 <0>         0.1893
     19 C14         1.6878    1.8946    1.0730 C.2       1 <0>        -0.0115
     20 C15         0.6729    1.0433    1.3253 C.2       1 <0>        -0.1593
     21 C16        -0.3919    1.8009    1.8519 C.2       1 <0>        -0.2049
     22 C17         0.0163    3.0848    1.9102 C.2       1 <0>         0.0041
     23 N3          1.2907    3.1491    1.4299 N.pl3     1 <0>        -0.4337
     24 C18         2.0995    4.3653    1.3155 C.3       1 <0>         0.1437
     25 C19         1.3624    5.5196    1.9441 C.ar      1 <0>        -0.1053
     26 C20         1.6555    5.9041    3.2392 C.ar      1 <0>        -0.0842
     27 C21         0.9792    6.9625    3.8161 C.ar      1 <0>        -0.1141
     28 C22         0.0098    7.6380    3.0980 C.ar      1 <0>        -0.0939
     29 C23        -0.2838    7.2549    1.8031 C.ar      1 <0>        -0.1117
     30 C24         0.3963    6.1984    1.2233 C.ar      1 <0>        -0.0185
     31 Cl1         0.0331    5.7211   -0.4058 Cl        1 <0>        -0.0571
     32 C25         3.5237    2.9552   -1.5393 C.3       1 <0>         0.1091
     33 C26         4.9920    2.7647   -1.9248 C.3       1 <0>        -0.1184
     34 C27         5.4935    4.0119   -2.6555 C.3       1 <0>        -0.1468
     35 C28         5.8264    2.5437   -0.6615 C.3       1 <0>        -0.1471
     36 H2          2.8744   -5.1354  -10.2314 H         1 <0>         0.0535
     37 H3          2.3322   -5.9344   -8.7361 H         1 <0>         0.0539
     38 H4          1.2972   -4.7169   -9.5203 H         1 <0>         0.0533
     39 H5          2.9857   -2.9676   -9.0328 H         1 <0>         0.0603
     40 H6          4.0207   -4.1851   -8.2486 H         1 <0>         0.0620
     41 H7          2.2283   -4.6457   -6.5982 H         1 <0>         0.0676
     42 H8          1.1934   -3.4282   -7.3823 H         1 <0>         0.0624
     43 H9          2.8818   -1.6789   -6.8948 H         1 <0>         0.0625
     44 H10         3.9168   -2.8964   -6.1107 H         1 <0>         0.0740
     45 H11         1.9140   -4.5528   -4.7670 H         1 <0>         0.0754
     46 H12         3.2674   -3.8302   -3.8646 H         1 <0>         0.0710
     47 H13         1.6038   -2.6591   -2.3947 H         1 <0>         0.0664
     48 H14         0.2957   -3.5098   -3.2510 H         1 <0>         0.0522
     49 H15         1.4823   -4.4322   -2.2974 H         1 <0>         0.0566
     50 H16         0.1238   -1.3364   -4.0074 H         1 <0>         0.0842
     51 H17        -0.0550    0.3269   -3.3993 H         1 <0>         0.0804
     52 H18        -0.9263    0.1264   -5.7122 H         1 <0>         0.0706
     53 H19         0.4855    1.2089   -5.6529 H         1 <0>         0.0587
     54 H20         0.6642   -0.4543   -6.2610 H         1 <0>         0.0615
     55 H21         1.8867    1.8232   -3.4907 H         1 <0>         0.1015
     56 H22         3.5050    1.0921   -3.6123 H         1 <0>         0.1107
     57 H23         3.8012    2.1565    0.9343 H         1 <0>         0.0812
     58 H24         3.2456    0.4789    0.7218 H         1 <0>         0.1005
     59 H25         0.6743   -0.0226    1.1514 H         1 <0>         0.1352
     60 H26        -1.3569    1.4225    2.1553 H         1 <0>         0.1321
     61 H27        -0.5673    3.9190    2.2706 H         1 <0>         0.1518
     62 H28         3.0502    4.2189    1.8281 H         1 <0>         0.0912
     63 H29         2.2835    4.5815    0.2632 H         1 <0>         0.0918
     64 H30         2.4128    5.3770    3.8005 H         1 <0>         0.1341
     65 H31         1.2083    7.2622    4.8280 H         1 <0>         0.1343
     66 H32        -0.5178    8.4654    3.5490 H         1 <0>         0.1366
     67 H33        -1.0408    7.7828    1.2421 H         1 <0>         0.1377
     68 H34         2.9447    3.2077   -2.4276 H         1 <0>         0.0765
     69 H35         3.4411    3.7615   -0.8105 H         1 <0>         0.0776
     70 H36         5.0865    1.8979   -2.5789 H         1 <0>         0.0779
     71 H37         5.4808    4.8622   -1.9736 H         1 <0>         0.0566
     72 H38         6.5115    3.8428   -3.0064 H         1 <0>         0.0610
     73 H39         4.8454    4.2194   -3.5070 H         1 <0>         0.0565
     74 H40         5.6554    3.3644    0.0351 H         1 <0>         0.0524
     75 H41         5.5352    1.6033   -0.1936 H         1 <0>         0.0573
     76 H42         6.8832    2.5059   -0.9261 H         1 <0>         0.0585
@<TRIPOS>BOND
     1    1    2 1
     2    1   36 1
     3    1   37 1
     4    1   38 1
     5    2    3 1
     6    2   39 1
     7    2   40 1
     8    3    4 1
     9    3   41 1
    10    3   42 1
    11    4    5 1
    12    4   43 1
    13    4   44 1
    14    5    6 1
    15    5    7 1
    16    5    9 1
    17    7    8 1
    18    7   45 1
    19    7   46 1
    20    8   47 1
    21    8   48 1
    22    8   49 1
    23    9   10 2
    24    9   11 am
    25   11   12 1
    26   11   14 1
    27   12   13 1
    28   12   50 1
    29   12   51 1
    30   13   52 1
    31   13   53 1
    32   13   54 1
    33   14   15 1
    34   14   55 1
    35   14   56 1
    36   15   16 2
    37   15   17 am
    38   17   18 1
    39   17   32 1
    40   18   19 1
    41   18   57 1
    42   18   58 1
    43   19   23 1
    44   19   20 2
    45   20   21 1
    46   20   59 1
    47   21   22 2
    48   21   60 1
    49   22   23 1
    50   22   61 1
    51   23   24 1
    52   24   25 1
    53   24   62 1
    54   24   63 1
    55   25   30 ar
    56   25   26 ar
    57   26   27 ar
    58   26   64 1
    59   27   28 ar
    60   27   65 1
    61   28   29 ar
    62   28   66 1
    63   29   30 ar
    64   29   67 1
    65   30   31 1
    66   32   33 1
    67   32   68 1
    68   32   69 1
    69   33   34 1
    70   33   35 1
    71   33   70 1
    72   34   71 1
    73   34   72 1
    74   34   73 1
    75   35   74 1
    76   35   75 1
    77   35   76 1
@<TRIPOS>MOLECULE
ZINC27578082
   59    60     0     0     0
SMALL
USER_CHARGES
(2R)-2-(3-allyl-6-iodo-4-oxo-quinazolin-2-yl)sulfanyl-N,N-dibutyl-propanamide
@<TRIPOS>ATOM
      1 C1         -7.9874   -5.4365    4.8485 C.3       1 <0>        -0.1540
      2 C2         -6.5794   -5.5806    4.2673 C.3       1 <0>        -0.1225
      3 C3         -6.4337   -4.6643    3.0507 C.3       1 <0>        -0.1350
      4 C4         -5.0258   -4.8084    2.4694 C.3       1 <0>         0.1129
      5 N1         -4.8862   -3.9309    1.3046 N.am      1 <0>        -0.6031
      6 C5         -5.2234   -4.4281   -0.0316 C.3       1 <0>         0.0955
      7 C6         -3.9814   -5.0508   -0.6725 C.3       1 <0>        -0.1419
      8 C7         -4.3336   -5.5700   -2.0679 C.3       1 <0>        -0.1226
      9 C8         -3.0916   -6.1927   -2.7088 C.3       1 <0>        -0.1549
     10 C9         -4.4476   -2.6663    1.4622 C.2       1 <0>         0.5312
     11 O1         -4.1685   -2.2547    2.5683 O.2       1 <0>        -0.5221
     12 C10        -4.3041   -1.7637    0.2639 C.3       1 <0>        -0.1264
     13 H1         -4.1321   -2.4586   -0.5713 H         1 <0>         0.1345
     14 C11        -5.6500   -1.1032   -0.0412 C.3       1 <0>        -0.1517
     15 S1         -3.0709   -0.4863    0.6151 S.3       1 <0>         0.0997
     16 C12        -2.9955    0.3066   -0.9566 C.2       1 <0>         0.3664
     17 N2         -3.7566   -0.1468   -1.9219 N.2       1 <0>        -0.5329
     18 C13        -3.7481    0.4150   -3.1535 C.ar      1 <0>         0.1889
     19 C14        -4.5594   -0.0684   -4.1840 C.ar      1 <0>        -0.1096
     20 C15        -4.5224    0.5262   -5.4133 C.ar      1 <0>        -0.0370
     21 C16        -3.6866    1.6089   -5.6590 C.ar      1 <0>        -0.1298
     22 C17        -2.8748    2.1078   -4.6637 C.ar      1 <0>         0.0025
     23 C18        -2.8972    1.5161   -3.4013 C.ar      1 <0>        -0.2010
     24 C19        -2.0585    2.0070   -2.2996 C.2       1 <0>         0.5578
     25 O2         -1.3091    2.9544   -2.4507 O.2       1 <0>        -0.4953
     26 N3         -2.1461    1.3646   -1.1118 N.am      1 <0>        -0.5230
     27 C20        -1.3278    1.8115    0.0182 C.3       1 <0>         0.1150
     28 C21        -0.0126    1.0758    0.0080 C.2       1 <0>        -0.1955
     29 C22         1.1129    1.7462    0.0008 C.2       1 <0>        -0.1472
     30 I1         -3.6613    2.4908   -7.5592 I         1 <0>        -0.0270
     31 H2         -8.0922   -6.0953    5.7232 H         1 <0>         0.0561
     32 H3         -8.7292   -5.7179    4.0865 H         1 <0>         0.0537
     33 H4         -8.1531   -4.3927    5.1536 H         1 <0>         0.0547
     34 H5         -5.8376   -5.2992    5.0293 H         1 <0>         0.0649
     35 H6         -6.4137   -6.6244    3.9622 H         1 <0>         0.0629
     36 H7         -7.1755   -4.9457    2.2888 H         1 <0>         0.0635
     37 H8         -6.5994   -3.6205    3.3558 H         1 <0>         0.0678
     38 H9         -4.2840   -4.5271    3.2314 H         1 <0>         0.0875
     39 H10        -4.8602   -5.8521    2.1641 H         1 <0>         0.0809
     40 H11        -6.0146   -5.1880    0.0488 H         1 <0>         0.0879
     41 H12        -5.5783   -3.5938   -0.6545 H         1 <0>         0.0865
     42 H13        -3.1902   -4.2908   -0.7529 H         1 <0>         0.0658
     43 H14        -3.6265   -5.8851   -0.0496 H         1 <0>         0.0705
     44 H15        -5.1248   -6.3299   -1.9874 H         1 <0>         0.0654
     45 H16        -4.6885   -4.7357   -2.6908 H         1 <0>         0.0655
     46 H17        -3.3448   -6.5660   -3.7121 H         1 <0>         0.0569
     47 H18        -2.7368   -7.0270   -2.0859 H         1 <0>         0.0547
     48 H19        -2.3004   -5.4327   -2.7892 H         1 <0>         0.0542
     49 H20        -5.5452   -0.4444   -0.9158 H         1 <0>         0.0980
     50 H21        -5.9730   -0.5107    0.8275 H         1 <0>         0.0686
     51 H22        -6.3994   -1.8796   -0.2546 H         1 <0>         0.0714
     52 H23        -5.2144   -0.9091   -4.0086 H         1 <0>         0.1472
     53 H24        -5.1516    0.1490   -6.2059 H         1 <0>         0.1404
     54 H25        -2.2267    2.9493   -4.8596 H         1 <0>         0.1443
     55 H26        -1.1439    2.8926   -0.0672 H         1 <0>         0.1134
     56 H27        -1.8573    1.6029    0.9595 H         1 <0>         0.1079
     57 H28         0.0024   -0.0241    0.0066 H         1 <0>         0.1210
     58 H29         2.0729    1.2092   -0.0066 H         1 <0>         0.1101
     59 H30         1.0979    2.8461    0.0022 H         1 <0>         0.1063
@<TRIPOS>BOND
     1    1    2 1
     2    1   31 1
     3    1   32 1
     4    1   33 1
     5    2    3 1
     6    2   34 1
     7    2   35 1
     8    3    4 1
     9    3   36 1
    10    3   37 1
    11    4    5 1
    12    4   38 1
    13    4   39 1
    14    5    6 1
    15    5   10 am
    16    6    7 1
    17    6   40 1
    18    6   41 1
    19    7    8 1
    20    7   42 1
    21    7   43 1
    22    8    9 1
    23    8   44 1
    24    8   45 1
    25    9   46 1
    26    9   47 1
    27    9   48 1
    28   10   11 2
    29   10   12 1
    30   12   13 1
    31   12   14 1
    32   12   15 1
    33   14   49 1
    34   14   50 1
    35   14   51 1
    36   15   16 1
    37   16   26 1
    38   16   17 2
    39   17   18 1
    40   18   23 ar
    41   18   19 ar
    42   19   20 ar
    43   19   52 1
    44   20   21 ar
    45   20   53 1
    46   21   22 ar
    47   21   30 1
    48   22   23 ar
    49   22   54 1
    50   23   24 1
    51   24   25 2
    52   24   26 am
    53   26   27 1
    54   27   28 1
    55   27   55 1
    56   27   56 1
    57   28   29 2
    58   28   57 1
    59   29   58 1
    60   29   59 1
@<TRIPOS>MOLECULE
ZINC35487760
   64    67     0     0     0
SMALL
USER_CHARGES

@<TRIPOS>ATOM
      1 C1         -0.0187    1.5258    0.0104 C.3       1 <0>        -0.1547
      2 C2          0.0021   -0.0041    0.0020 C.3       1 <0>        -0.1259
      3 C3         -1.4333   -0.5336    0.0129 C.3       1 <0>        -0.1198
      4 C4         -1.4126   -2.0635    0.0045 C.3       1 <0>        -0.1175
      5 C5         -2.8479   -2.5931    0.0153 C.3       1 <0>        -0.1195
      6 C6         -2.8272   -4.1229    0.0069 C.3       1 <0>         0.0579
      7 O1         -4.1678   -4.6175    0.0171 O.3       1 <0>        -0.3137
      8 C7         -4.3276   -5.9671    0.0113 C.ar      1 <0>         0.1443
      9 C8         -3.2168   -6.7982    0.0021 C.ar      1 <0>        -0.2065
     10 C9         -3.3819   -8.1698   -0.0033 C.ar      1 <0>        -0.0426
     11 C10        -4.6528   -8.7143    0.0002 C.ar      1 <0>        -0.1405
     12 C11        -5.7614   -7.8881    0.0090 C.ar      1 <0>        -0.0580
     13 C12        -5.6017   -6.5160    0.0206 C.ar      1 <0>        -0.1520
     14 C13        -4.8300  -10.2109   -0.0061 C.3       1 <0>         0.2337
     15 H1         -3.9167  -10.6957   -0.3510 H         1 <0>         0.1210
     16 C14        -5.1844  -10.6935    1.3620 C.2       1 <0>        -0.2422
     17 C15        -4.4534  -10.6218    2.6315 C.2       1 <0>         0.4574
     18 O2         -3.4422   -9.9593    2.7826 O.2       1 <0>        -0.4240
     19 C16        -5.0633  -11.4331    3.7152 C.ar      1 <0>        -0.2023
     20 C17        -4.3842  -11.6290    4.9176 C.ar      1 <0>        -0.0215
     21 C18        -4.9632  -12.3892    5.9105 C.ar      1 <0>        -0.0631
     22 C19        -6.2158  -12.9561    5.7115 C.ar      1 <0>        -0.0450
     23 C20        -6.8954  -12.7674    4.5298 C.ar      1 <0>        -0.1208
     24 C21        -6.3317  -12.0001    3.5104 C.ar      1 <0>         0.1479
     25 O3         -7.0257  -11.8227    2.3628 O.3       1 <0>        -0.1784
     26 C22        -6.4130  -11.2859    1.2895 C.2       1 <0>         0.0883
     27 C23        -6.8802  -11.2116   -0.1060 C.2       1 <0>         0.5709
     28 O4         -7.9384  -11.6512   -0.5099 O.2       1 <0>        -0.4824
     29 N1         -5.9611  -10.5847   -0.8710 N.am      1 <0>        -0.5905
     30 C24        -6.0697  -10.3210   -2.3080 C.3       1 <0>         0.1431
     31 C25        -5.4751  -11.4951   -3.0883 C.3       1 <0>        -0.1404
     32 C26        -5.5886  -11.2198   -4.5890 C.3       1 <0>         0.0643
     33 O5         -5.0332  -12.3164   -5.3178 O.3       1 <0>        -0.3913
     34 C27        -5.0894  -12.1590   -6.7370 C.3       1 <0>         0.0313
     35 Cl1        -4.1265  -12.6390    7.4109 Cl        1 <0>        -0.0469
     36 H2          1.0039    1.9031    0.0027 H         1 <0>         0.0543
     37 H3         -0.5459    1.8868   -0.8726 H         1 <0>         0.0539
     38 H4         -0.5289    1.8773    0.9072 H         1 <0>         0.0540
     39 H5          0.5123   -0.3556   -0.8948 H         1 <0>         0.0612
     40 H6          0.5293   -0.3651    0.8851 H         1 <0>         0.0614
     41 H7         -1.9435   -0.1821    0.9097 H         1 <0>         0.0637
     42 H8         -1.9605   -0.1726   -0.8702 H         1 <0>         0.0636
     43 H9         -0.9024   -2.4150   -0.8923 H         1 <0>         0.0654
     44 H10        -0.8854   -2.4246    0.8875 H         1 <0>         0.0657
     45 H11        -3.3581   -2.2415    0.9121 H         1 <0>         0.0745
     46 H12        -3.3751   -2.2320   -0.8677 H         1 <0>         0.0744
     47 H13        -2.3170   -4.4744   -0.8899 H         1 <0>         0.0636
     48 H14        -2.3000   -4.4840    0.8900 H         1 <0>         0.0639
     49 H15        -2.2239   -6.3734   -0.0013 H         1 <0>         0.1318
     50 H16        -2.5175   -8.8172   -0.0105 H         1 <0>         0.1300
     51 H17        -6.7531   -8.3159    0.0113 H         1 <0>         0.1236
     52 H18        -6.4679   -5.8711    0.0319 H         1 <0>         0.1334
     53 H19        -3.4102  -11.1879    5.0695 H         1 <0>         0.1563
     54 H20        -6.6619  -13.5520    6.4940 H         1 <0>         0.1552
     55 H21        -7.8685  -13.2150    4.3911 H         1 <0>         0.1586
     56 H22        -7.1191  -10.2003   -2.5769 H         1 <0>         0.0963
     57 H23        -5.5248   -9.4092   -2.5523 H         1 <0>         0.0963
     58 H24        -4.4257  -11.6158   -2.8194 H         1 <0>         0.0782
     59 H25        -6.0200  -12.4070   -2.8439 H         1 <0>         0.0798
     60 H26        -6.6380  -11.0991   -4.8579 H         1 <0>         0.0539
     61 H27        -5.0437  -10.3079   -4.8333 H         1 <0>         0.0531
     62 H28        -4.6485  -13.0326   -7.2171 H         1 <0>         0.0878
     63 H29        -6.1285  -12.0578   -7.0505 H         1 <0>         0.0430
     64 H30        -4.5342  -11.2667   -7.0259 H         1 <0>         0.0425
@<TRIPOS>BOND
     1    1    2 1
     2    1   36 1
     3    1   37 1
     4    1   38 1
     5    2    3 1
     6    2   39 1
     7    2   40 1
     8    3    4 1
     9    3   41 1
    10    3   42 1
    11    4    5 1
    12    4   43 1
    13    4   44 1
    14    5    6 1
    15    5   45 1
    16    5   46 1
    17    6    7 1
    18    6   47 1
    19    6   48 1
    20    7    8 1
    21    8   13 ar
    22    8    9 ar
    23    9   10 ar
    24    9   49 1
    25   10   11 ar
    26   10   50 1
    27   11   12 ar
    28   11   14 1
    29   12   13 ar
    30   12   51 1
    31   13   52 1
    32   14   15 1
    33   14   29 1
    34   14   16 1
    35   16   26 2
    36   16   17 1
    37   17   18 2
    38   17   19 1
    39   19   24 ar
    40   19   20 ar
    41   20   21 ar
    42   20   53 1
    43   21   22 ar
    44   21   35 1
    45   22   23 ar
    46   22   54 1
    47   23   24 ar
    48   23   55 1
    49   24   25 1
    50   25   26 1
    51   26   27 1
    52   27   28 2
    53   27   29 am
    54   29   30 1
    55   30   31 1
    56   30   56 1
    57   30   57 1
    58   31   32 1
    59   31   58 1
    60   31   59 1
    61   32   33 1
    62   32   60 1
    63   32   61 1
    64   33   34 1
    65   34   62 1
    66   34   63 1
    67   34   64 1
@<TRIPOS>MOLECULE
ZINC39983099
   72    75     0     0     0
SMALL
USER_CHARGES

@<TRIPOS>ATOM
      1 C1          0.9910    3.9131    5.2962 C.3       1 <0>        -0.1538
      2 C2          2.4405    3.4256    5.3428 C.3       1 <0>        -0.1241
      3 C3          2.4625    1.9107    5.5563 C.3       1 <0>        -0.1230
      4 C4          3.9121    1.4233    5.6029 C.3       1 <0>        -0.1103
      5 C5          3.9379   -0.0679    5.9443 C.3       1 <0>        -0.0985
      6 H1          3.3834   -0.2391    6.8669 H         1 <0>         0.0811
      7 C6          5.3868   -0.5240    6.1279 C.3       1 <0>        -0.1161
      8 C7          5.9930    0.1803    7.3433 C.3       1 <0>        -0.1522
      9 C8          3.2933   -0.8628    4.8069 C.3       1 <0>         0.0858
     10 N1          3.2099   -2.2758    5.1847 N.am      1 <0>        -0.5179
     11 C9          4.2164   -3.0829    4.8948 C.2       1 <0>         0.5420
     12 O1          5.2124   -2.6815    4.3210 O.2       1 <0>        -0.4553
     13 C10         4.0731   -4.4924    5.3011 C.2       1 <0>        -0.2708
     14 C11         4.9322   -5.5324    5.1381 C.2       1 <0>         0.1516
     15 C12         6.1439   -5.3628    4.3294 C.2       1 <0>        -0.2456
     16 C13         6.2555   -4.6676    3.1393 C.2       1 <0>         0.1500
     17 N2          7.5347   -4.7575    2.7288 N.pl3     1 <0>        -0.3054
     18 N3          8.2710   -5.5119    3.6464 N.2       1 <0>        -0.2768
     19 C14         7.4808   -5.8917    4.6257 C.2       1 <0>         0.1746
     20 C15         7.8658   -6.7035    5.8040 C.ar      1 <0>        -0.0667
     21 C16         7.2649   -6.4694    7.0406 C.ar      1 <0>        -0.0512
     22 C17         7.6255   -7.2266    8.1350 C.ar      1 <0>        -0.1502
     23 C18         8.5857   -8.2213    8.0071 C.ar      1 <0>         0.1495
     24 C19         9.1862   -8.4568    6.7775 C.ar      1 <0>        -0.2093
     25 C20         8.8258   -7.7073    5.6777 C.ar      1 <0>        -0.0399
     26 O2          8.9387   -8.9656    9.0875 O.3       1 <0>        -0.3121
     27 C21         9.9328   -9.9721    8.8852 C.3       1 <0>         0.0561
     28 C22        10.1970  -10.7005   10.2044 C.3       1 <0>        -0.1242
     29 C23        11.2613  -11.7781    9.9878 C.3       1 <0>        -0.1512
     30 C24         8.0491   -4.1827    1.5598 C.ar      1 <0>         0.1497
     31 C25         7.2203   -3.4467    0.7233 C.ar      1 <0>        -0.1351
     32 C26         7.7307   -2.8808   -0.4285 C.ar      1 <0>        -0.0920
     33 C27         9.0656   -3.0465   -0.7492 C.ar      1 <0>        -0.1228
     34 C28         9.8935   -3.7792    0.0815 C.ar      1 <0>        -0.0955
     35 C29         9.3905   -4.3429    1.2376 C.ar      1 <0>        -0.1137
     36 S1          2.4586   -4.4577    6.0679 S.3       1 <0>         0.0689
     37 C30         2.1106   -2.7232    5.8254 C.2       1 <0>         0.2814
     38 S2          0.7182   -1.8424    6.2908 S.2       1 <0>        -0.3378
     39 H2          0.4960    3.6715    6.2369 H         1 <0>         0.0546
     40 H3          0.9753    4.9923    5.1441 H         1 <0>         0.0524
     41 H4          0.4690    3.4227    4.4746 H         1 <0>         0.0537
     42 H5          2.9355    3.6672    4.4022 H         1 <0>         0.0591
     43 H6          2.9625    3.9160    6.1645 H         1 <0>         0.0600
     44 H7          1.9676    1.6691    6.4969 H         1 <0>         0.0678
     45 H8          1.9405    1.4204    4.7346 H         1 <0>         0.0630
     46 H9          4.3801    1.5817    4.6313 H         1 <0>         0.0645
     47 H10         4.4583    1.9799    6.3644 H         1 <0>         0.0739
     48 H11         5.4112   -1.6026    6.2833 H         1 <0>         0.0530
     49 H12         5.9626   -0.2721    5.2373 H         1 <0>         0.0678
     50 H13         6.9926   -0.2125    7.5297 H         1 <0>         0.0534
     51 H14         6.0537    1.2512    7.1499 H         1 <0>         0.0585
     52 H15         5.3647    0.0037    8.2164 H         1 <0>         0.0530
     53 H16         2.2914   -0.4777    4.6169 H         1 <0>         0.1148
     54 H17         3.8980   -0.7628    3.9055 H         1 <0>         0.1022
     55 H18         4.7228   -6.4840    5.6040 H         1 <0>         0.1595
     56 H19         5.4588   -4.1461    2.6298 H         1 <0>         0.1835
     57 H20         6.5182   -5.6955    7.1409 H         1 <0>         0.1313
     58 H21         7.1608   -7.0455    9.0930 H         1 <0>         0.1389
     59 H22         9.9333   -9.2308    6.6815 H         1 <0>         0.1341
     60 H23         9.2895   -7.8945    4.7204 H         1 <0>         0.1319
     61 H24         9.5810  -10.6857    8.1402 H         1 <0>         0.0649
     62 H25        10.8547   -9.5071    8.5360 H         1 <0>         0.0645
     63 H26        10.5488   -9.9869   10.9494 H         1 <0>         0.0745
     64 H27         9.2750  -11.1655   10.5537 H         1 <0>         0.0748
     65 H28        11.4495  -12.2970   10.9277 H         1 <0>         0.0663
     66 H29        10.9095  -12.4917    9.2428 H         1 <0>         0.0582
     67 H30        12.1833  -11.3131    9.6386 H         1 <0>         0.0581
     68 H31         6.1775   -3.3172    0.9730 H         1 <0>         0.1285
     69 H32         7.0865   -2.3085   -1.0796 H         1 <0>         0.1349
     70 H33         9.4624   -2.6029   -1.6504 H         1 <0>         0.1314
     71 H34        10.9355   -3.9071   -0.1719 H         1 <0>         0.1346
     72 H35        10.0386   -4.9110    1.8884 H         1 <0>         0.1392
@<TRIPOS>BOND
     1    1    2 1
     2    1   39 1
     3    1   40 1
     4    1   41 1
     5    2    3 1
     6    2   42 1
     7    2   43 1
     8    3    4 1
     9    3   44 1
    10    3   45 1
    11    4    5 1
    12    4   46 1
    13    4   47 1
    14    5    6 1
    15    5    7 1
    16    5    9 1
    17    7    8 1
    18    7   48 1
    19    7   49 1
    20    8   50 1
    21    8   51 1
    22    8   52 1
    23    9   10 1
    24    9   53 1
    25    9   54 1
    26   10   37 1
    27   10   11 am
    28   11   12 2
    29   11   13 1
    30   13   14 2
    31   13   36 1
    32   14   15 1
    33   14   55 1
    34   15   19 1
    35   15   16 2
    36   16   17 1
    37   16   56 1
    38   17   18 1
    39   17   30 1
    40   18   19 2
    41   19   20 1
    42   20   25 ar
    43   20   21 ar
    44   21   22 ar
    45   21   57 1
    46   22   23 ar
    47   22   58 1
    48   23   24 ar
    49   23   26 1
    50   24   25 ar
    51   24   59 1
    52   25   60 1
    53   26   27 1
    54   27   28 1
    55   27   61 1
    56   27   62 1
    57   28   29 1
    58   28   63 1
    59   28   64 1
    60   29   65 1
    61   29   66 1
    62   29   67 1
    63   30   35 ar
    64   30   31 ar
    65   31   32 ar
    66   31   68 1
    67   32   33 ar
    68   32   69 1
    69   33   34 ar
    70   33   70 1
    71   34   35 ar
    72   34   71 1
    73   35   72 1
    74   36   37 1
    75   37   38 2
@<TRIPOS>MOLECULE
ZINC11478220
   67    69     0     0     0
SMALL
USER_CHARGES
2-[[5-[(4-ethylphenoxy)methyl]-4-isobutyl-1,2,4-triazol-3-yl]sulfanyl]-N-[1-(4-fluorophenyl)ethyl]-N-methyl-acetamide
@<TRIPOS>ATOM
      1 C1        -11.0734   10.5951   -1.7998 C.3       1 <0>        -0.1484
      2 C2         -9.6419   11.1292   -1.8790 C.3       1 <0>        -0.0825
      3 C3         -8.6704    9.9922   -1.6936 C.ar      1 <0>        -0.1157
      4 C4         -8.2206    9.2827   -2.7919 C.ar      1 <0>        -0.0768
      5 C5         -7.3301    8.2399   -2.6246 C.ar      1 <0>        -0.1433
      6 C6         -6.8871    7.9048   -1.3533 C.ar      1 <0>         0.1243
      7 C7         -7.3444    8.6145   -0.2525 C.ar      1 <0>        -0.2049
      8 C8         -8.2301    9.6604   -0.4257 C.ar      1 <0>        -0.0764
      9 O1         -6.0110    6.8794   -1.1862 O.3       1 <0>        -0.3084
     10 C9         -5.5981    6.5904    0.1510 C.3       1 <0>         0.1541
     11 C10        -4.6341    5.4320    0.1398 C.2       1 <0>         0.1774
     12 N1         -4.9426    4.1699    0.2373 N.2       1 <0>        -0.2530
     13 N2         -3.8787    3.4505    0.1878 N.2       1 <0>        -0.2920
     14 C11        -2.8240    4.2223    0.0632 C.2       1 <0>         0.1504
     15 N3         -3.2736    5.5110    0.0254 N.pl3     1 <0>        -0.4445
     16 C12        -2.4663    6.7259   -0.1098 C.3       1 <0>         0.1029
     17 C13        -2.3006    7.0660   -1.5923 C.3       1 <0>        -0.1118
     18 C14        -1.5649    8.4003   -1.7304 C.3       1 <0>        -0.1449
     19 C15        -1.4926    5.9643   -2.2810 C.3       1 <0>        -0.1546
     20 S1         -1.1462    3.6945   -0.0429 S.3       1 <0>         0.0908
     21 C16        -1.3720    1.9028    0.0790 C.3       1 <0>        -0.1520
     22 C17        -0.0297    1.2214    0.0091 C.2       1 <0>         0.5356
     23 O2          0.9798    1.8818   -0.1163 O.2       1 <0>        -0.5205
     24 N4          0.0485   -0.1222    0.0803 N.am      1 <0>        -0.6017
     25 C18        -1.1709   -0.9199    0.2317 C.3       1 <0>         0.0684
     26 C19         1.3529   -0.7849    0.0063 C.3       1 <0>         0.1797
     27 H1          2.1247   -0.0453   -0.2066 H         1 <0>         0.1178
     28 C20         1.3299   -1.8332   -1.1080 C.3       1 <0>        -0.1625
     29 C21         1.6503   -1.4569    1.3220 C.ar      1 <0>        -0.1103
     30 C22         1.1752   -0.9104    2.4996 C.ar      1 <0>        -0.0747
     31 C23         1.4426   -1.5288    3.7063 C.ar      1 <0>        -0.1514
     32 C24         2.1965   -2.6897    3.7365 C.ar      1 <0>         0.1000
     33 C25         2.6766   -3.2331    2.5569 C.ar      1 <0>        -0.1509
     34 C26         2.4028   -2.6162    1.3509 C.ar      1 <0>        -0.0822
     35 F1          2.4639   -3.2916    4.9161 F         1 <0>        -0.1384
     36 H2        -11.2284    9.8534   -2.5834 H         1 <0>         0.0558
     37 H3        -11.2357   10.1337   -0.8257 H         1 <0>         0.0552
     38 H4        -11.7760   11.4175   -1.9339 H         1 <0>         0.0582
     39 H5         -9.4869   11.8709   -1.0954 H         1 <0>         0.0709
     40 H6         -9.4796   11.5906   -2.8532 H         1 <0>         0.0715
     41 H7         -8.5655    9.5442   -3.7813 H         1 <0>         0.1298
     42 H8         -6.9788    7.6863   -3.4828 H         1 <0>         0.1306
     43 H9         -7.0045    8.3526    0.7386 H         1 <0>         0.1274
     44 H10        -8.5824   10.2165    0.4305 H         1 <0>         0.1256
     45 H11        -6.4695    6.3321    0.7526 H         1 <0>         0.1024
     46 H12        -5.1088    7.4661    0.5774 H         1 <0>         0.0827
     47 H13        -2.9641    7.5514    0.3989 H         1 <0>         0.1004
     48 H14        -1.4857    6.5622    0.3372 H         1 <0>         0.1034
     49 H15        -3.2825    7.1424   -2.0594 H         1 <0>         0.0839
     50 H16        -0.5830    8.3239   -1.2632 H         1 <0>         0.0616
     51 H17        -1.4469    8.6426   -2.7865 H         1 <0>         0.0670
     52 H18        -2.1406    9.1851   -1.2397 H         1 <0>         0.0584
     53 H19        -0.5107    5.8879   -1.8139 H         1 <0>         0.0648
     54 H20        -2.0167    5.0137   -2.1826 H         1 <0>         0.0576
     55 H21        -1.3746    6.2066   -3.3372 H         1 <0>         0.0638
     56 H22        -1.9975    1.5586   -0.7446 H         1 <0>         0.1294
     57 H23        -1.8534    1.6609    1.0265 H         1 <0>         0.1277
     58 H24        -1.5259   -1.2310   -0.7508 H         1 <0>         0.0660
     59 H25        -0.9559   -1.8011    0.8361 H         1 <0>         0.0780
     60 H26        -1.9382   -0.3211    0.7225 H         1 <0>         0.0790
     61 H27         0.5581   -2.5728   -0.8951 H         1 <0>         0.0658
     62 H28         1.1148   -1.3471   -2.0596 H         1 <0>         0.0672
     63 H29         2.3004   -2.3263   -1.1630 H         1 <0>         0.0763
     64 H30         0.5915   -0.0020    2.4762 H         1 <0>         0.1272
     65 H31         1.0678   -1.1039    4.6258 H         1 <0>         0.1361
     66 H32         3.2651   -4.1384    2.5794 H         1 <0>         0.1380
     67 H33         2.7772   -3.0399    0.4307 H         1 <0>         0.1386
@<TRIPOS>BOND
     1    1    2 1
     2    1   36 1
     3    1   37 1
     4    1   38 1
     5    2    3 1
     6    2   39 1
     7    2   40 1
     8    3    8 ar
     9    3    4 ar
    10    4    5 ar
    11    4   41 1
    12    5    6 ar
    13    5   42 1
    14    6    7 ar
    15    6    9 1
    16    7    8 ar
    17    7   43 1
    18    8   44 1
    19    9   10 1
    20   10   11 1
    21   10   45 1
    22   10   46 1
    23   11   15 1
    24   11   12 2
    25   12   13 1
    26   13   14 2
    27   14   15 1
    28   14   20 1
    29   15   16 1
    30   16   17 1
    31   16   47 1
    32   16   48 1
    33   17   18 1
    34   17   19 1
    35   17   49 1
    36   18   50 1
    37   18   51 1
    38   18   52 1
    39   19   53 1
    40   19   54 1
    41   19   55 1
    42   20   21 1
    43   21   22 1
    44   21   56 1
    45   21   57 1
    46   22   23 2
    47   22   24 am
    48   24   25 1
    49   24   26 1
    50   25   58 1
    51   25   59 1
    52   25   60 1
    53   26   27 1
    54   26   28 1
    55   26   29 1
    56   28   61 1
    57   28   62 1
    58   28   63 1
    59   29   34 ar
    60   29   30 ar
    61   30   31 ar
    62   30   64 1
    63   31   32 ar
    64   31   65 1
    65   32   33 ar
    66   32   35 1
    67   33   34 ar
    68   33   66 1
    69   34   67 1
@<TRIPOS>MOLECULE
ZINC16532772
   66    69     0     0     0
SMALL
USER_CHARGES
2-[butyl-[2-(2-thienyl)acetyl]amino]-N-[(4-fluorophenyl)methyl]-N-[(4-oxochromen-3-yl)methyl]acetamide
@<TRIPOS>ATOM
      1 C1          2.4113   -5.9132   -3.2445 C.3       1 <0>        -0.1511
      2 C2          1.5342   -5.2283   -4.2945 C.3       1 <0>        -0.1232
      3 C3          0.0712   -5.2805   -3.8496 C.3       1 <0>        -0.1360
      4 C4         -0.8059   -4.5956   -4.8996 C.3       1 <0>         0.1056
      5 N1         -2.2067   -4.6455   -4.4735 N.am      1 <0>        -0.5979
      6 C5         -2.7634   -3.5631   -3.6583 C.3       1 <0>         0.0909
      7 C6         -2.5706   -3.8837   -2.1984 C.2       1 <0>         0.5034
      8 O1         -2.1243   -4.9619   -1.8681 O.2       1 <0>        -0.5210
      9 N2         -2.8942   -2.9721   -1.2599 N.am      1 <0>        -0.5999
     10 C7         -3.5234   -1.7086   -1.6521 C.3       1 <0>         0.1410
     11 C8         -5.0210   -1.8392   -1.5469 C.ar      1 <0>        -0.1218
     12 C9         -5.7439   -2.3685   -2.5997 C.ar      1 <0>        -0.0762
     13 C10        -7.1168   -2.4932   -2.5024 C.ar      1 <0>        -0.1496
     14 C11        -7.7694   -2.0781   -1.3540 C.ar      1 <0>         0.1045
     15 C12        -7.0450   -1.5433   -0.3022 C.ar      1 <0>        -0.1536
     16 C13        -5.6716   -1.4244   -0.3997 C.ar      1 <0>        -0.0715
     17 F1         -9.1120   -2.1952   -1.2596 F         1 <0>        -0.1383
     18 C14        -2.6168   -3.2448    0.1525 C.3       1 <0>         0.1862
     19 C15        -1.1888   -2.8774    0.4640 C.2       1 <0>        -0.3215
     20 C16        -0.2447   -3.8330    0.5377 C.2       1 <0>         0.1645
     21 O2          1.0370   -3.5668    0.8106 O.3       1 <0>        -0.2189
     22 C17         1.4834   -2.3139    1.0340 C.ar      1 <0>         0.1385
     23 C18         2.8224   -2.0710    1.3158 C.ar      1 <0>        -0.1394
     24 C19         3.2543   -0.7815    1.5410 C.ar      1 <0>        -0.0563
     25 C20         2.3652    0.2826    1.4907 C.ar      1 <0>        -0.1476
     26 C21         1.0339    0.0634    1.2126 C.ar      1 <0>        -0.0311
     27 C22         0.5849   -1.2360    0.9826 C.ar      1 <0>        -0.2225
     28 C23        -0.8315   -1.5203    0.6815 C.2       1 <0>         0.4329
     29 O3         -1.6602   -0.6279    0.6232 O.2       1 <0>        -0.4676
     30 C24        -2.9832   -5.6873   -4.8316 C.2       1 <0>         0.5248
     31 O4         -4.1429   -5.7286   -4.4789 O.2       1 <0>        -0.5174
     32 C25        -2.4106   -6.8007   -5.6703 C.3       1 <0>        -0.0533
     33 C26        -3.4767   -7.8339   -5.9292 C.2       1 <0>        -0.1309
     34 C27        -4.3685   -7.9035   -6.9477 C.2       1 <0>        -0.1448
     35 C28        -5.2632   -8.9565   -6.9844 C.2       1 <0>        -0.1565
     36 C29        -5.2293   -9.8826   -5.9952 C.2       1 <0>        -0.1738
     37 S1         -3.8980   -9.2795   -4.9701 S.3       1 <0>         0.0503
     38 H1          2.3034   -5.3989   -2.2896 H         1 <0>         0.0527
     39 H2          2.1018   -6.9525   -3.1345 H         1 <0>         0.0546
     40 H3          3.4535   -5.8760   -3.5615 H         1 <0>         0.0543
     41 H4          1.6421   -5.7426   -5.2495 H         1 <0>         0.0632
     42 H5          1.8437   -4.1890   -4.4046 H         1 <0>         0.0606
     43 H6         -0.0366   -4.7662   -2.8946 H         1 <0>         0.0722
     44 H7         -0.2382   -6.3198   -3.7396 H         1 <0>         0.0676
     45 H8         -0.6980   -5.1099   -5.8546 H         1 <0>         0.0848
     46 H9         -0.4964   -3.5563   -5.0096 H         1 <0>         0.0810
     47 H10        -3.8276   -3.4592   -3.8700 H         1 <0>         0.1160
     48 H11        -2.2528   -2.6298   -3.8958 H         1 <0>         0.1064
     49 H12        -3.1809   -0.9118   -0.9919 H         1 <0>         0.1098
     50 H13        -3.2508   -1.4708   -2.6804 H         1 <0>         0.0869
     51 H14        -5.2350   -2.6885   -3.4970 H         1 <0>         0.1294
     52 H15        -7.6808   -2.9106   -3.3234 H         1 <0>         0.1367
     53 H16        -7.5530   -1.2194    0.5941 H         1 <0>         0.1370
     54 H17        -5.1063   -1.0075    0.4207 H         1 <0>         0.1357
     55 H18        -2.7718   -4.3045    0.3552 H         1 <0>         0.0922
     56 H19        -3.2882   -2.6537    0.7754 H         1 <0>         0.0955
     57 H20        -0.5345   -4.8595    0.3687 H         1 <0>         0.2028
     58 H21         3.5237   -2.8913    1.3579 H         1 <0>         0.1440
     59 H22         4.2958   -0.5975    1.7596 H         1 <0>         0.1415
     60 H23         2.7187    1.2873    1.6694 H         1 <0>         0.1370
     61 H24         0.3438    0.8930    1.1686 H         1 <0>         0.1421
     62 H25        -2.0582   -6.3965   -6.6193 H         1 <0>         0.1158
     63 H26        -1.5776   -7.2630   -5.1406 H         1 <0>         0.1106
     64 H27        -4.3780   -7.1490   -7.7204 H         1 <0>         0.1300
     65 H28        -5.9815   -9.0376   -7.7868 H         1 <0>         0.1332
     66 H29        -5.8476  -10.7580   -5.8617 H         1 <0>         0.1852
@<TRIPOS>BOND
     1    1    2 1
     2    1   38 1
     3    1   39 1
     4    1   40 1
     5    2    3 1
     6    2   41 1
     7    2   42 1
     8    3    4 1
     9    3   43 1
    10    3   44 1
    11    4    5 1
    12    4   45 1
    13    4   46 1
    14    5    6 1
    15    5   30 am
    16    6    7 1
    17    6   47 1
    18    6   48 1
    19    7    8 2
    20    7    9 am
    21    9   10 1
    22    9   18 1
    23   10   11 1
    24   10   49 1
    25   10   50 1
    26   11   16 ar
    27   11   12 ar
    28   12   13 ar
    29   12   51 1
    30   13   14 ar
    31   13   52 1
    32   14   15 ar
    33   14   17 1
    34   15   16 ar
    35   15   53 1
    36   16   54 1
    37   18   19 1
    38   18   55 1
    39   18   56 1
    40   19   28 1
    41   19   20 2
    42   20   21 1
    43   20   57 1
    44   21   22 1
    45   22   27 ar
    46   22   23 ar
    47   23   24 ar
    48   23   58 1
    49   24   25 ar
    50   24   59 1
    51   25   26 ar
    52   25   60 1
    53   26   27 ar
    54   26   61 1
    55   27   28 1
    56   28   29 2
    57   30   31 2
    58   30   32 1
    59   32   33 1
    60   32   62 1
    61   32   63 1
    62   33   37 1
    63   33   34 2
    64   34   35 1
    65   34   64 1
    66   35   36 2
    67   35   65 1
    68   36   37 1
    69   36   66 1
@<TRIPOS>MOLECULE
ZINC35072898
   73    76     0     0     0
SMALL
USER_CHARGES

@<TRIPOS>ATOM
      1 C1         -1.6856    1.9988   -1.1131 C.3       1 <0>        -0.1532
      2 C2         -1.6481    0.4697   -1.0748 C.3       1 <0>         0.0601
      3 O1         -0.6332   -0.0042   -1.9622 O.3       1 <0>        -0.3505
      4 C3         -0.4696   -1.3338   -2.0464 C.2       1 <0>         0.4636
      5 O2         -1.1651   -2.0709   -1.3884 O.2       1 <0>        -0.5085
      6 C4          0.5815   -1.9072   -2.9615 C.3       1 <0>        -0.0979
      7 C5          0.5593   -3.4343   -2.8699 C.3       1 <0>        -0.1279
      8 C6          1.6104   -4.0078   -3.7850 C.2       1 <0>         0.5220
      9 O3          2.3085   -3.2679   -4.4454 O.2       1 <0>        -0.5157
     10 N1          1.7746   -5.3428   -3.8695 N.am      1 <0>        -0.6032
     11 C7          0.9314   -6.2365   -3.0717 C.3       1 <0>         0.1002
     12 C8         -0.3856   -6.4880   -3.8089 C.3       1 <0>        -0.1347
     13 C9         -1.3138   -7.3228   -2.9244 C.3       1 <0>        -0.0922
     14 C10        -2.6746   -7.4690   -3.6082 C.3       1 <0>        -0.1471
     15 C11        -0.7011   -8.7077   -2.7064 C.3       1 <0>        -0.1473
     16 C12         2.7964   -5.9003   -4.7591 C.3       1 <0>         0.1837
     17 H1          3.2510   -5.0969   -5.3388 H         1 <0>         0.1297
     18 C13         3.8721   -6.5994   -3.9254 C.3       1 <0>        -0.1435
     19 C14         2.1595   -6.8959   -5.6940 C.2       1 <0>         0.3911
     20 N2          2.3488   -8.1607   -5.4695 N.2       1 <0>        -0.4985
     21 C15         1.8070   -9.1137   -6.2683 C.ar      1 <0>         0.1517
     22 C16         2.0101  -10.4741   -6.0268 C.ar      1 <0>        -0.1061
     23 C17         1.4408  -11.4075   -6.8632 C.ar      1 <0>        -0.0722
     24 C18         0.6660  -11.0138   -7.9466 C.ar      1 <0>        -0.1346
     25 C19         0.4515   -9.6779   -8.2059 C.ar      1 <0>        -0.0414
     26 C20         1.0180   -8.7168   -7.3708 C.ar      1 <0>        -0.1933
     27 C21         0.8227   -7.2776   -7.5978 C.2       1 <0>         0.5468
     28 O4          0.1537   -6.8694   -8.5293 O.2       1 <0>        -0.4940
     29 N3          1.4107   -6.4240   -6.7274 N.am      1 <0>        -0.4927
     30 C22         1.2515   -5.0431   -6.8950 C.ar      1 <0>         0.1124
     31 C23         2.3218   -4.2748   -7.3682 C.ar      1 <0>        -0.1078
     32 C24         2.1958   -2.9325   -7.5401 C.ar      1 <0>        -0.0675
     33 C25         0.9767   -2.2990   -7.2414 C.ar      1 <0>        -0.0302
     34 C26         0.8173   -0.9130   -7.4099 C.ar      1 <0>        -0.1008
     35 C27        -0.3761   -0.3304   -7.1119 C.ar      1 <0>        -0.1103
     36 C28        -1.4467   -1.0879   -6.6402 C.ar      1 <0>        -0.1112
     37 C29        -1.3297   -2.4323   -6.4644 C.ar      1 <0>        -0.1071
     38 C30        -0.1123   -3.0695   -6.7621 C.ar      1 <0>        -0.0400
     39 C31         0.0421   -4.4557   -6.5981 C.ar      1 <0>        -0.0759
     40 H2         -0.7182    2.3938   -0.8028 H         1 <0>         0.0673
     41 H3         -1.9055    2.3316   -2.1274 H         1 <0>         0.0672
     42 H4         -2.4597    2.3603   -0.4362 H         1 <0>         0.0801
     43 H5         -1.4281    0.1369   -0.0605 H         1 <0>         0.0677
     44 H6         -2.6154    0.0747   -1.3851 H         1 <0>         0.0675
     45 H7          0.3759   -1.6018   -3.9874 H         1 <0>         0.1140
     46 H8          1.5631   -1.5396   -2.6627 H         1 <0>         0.1145
     47 H9          0.7649   -3.7398   -1.8440 H         1 <0>         0.1042
     48 H10        -0.4223   -3.8020   -3.1686 H         1 <0>         0.1027
     49 H11         1.4487   -7.1837   -2.9188 H         1 <0>         0.0949
     50 H12         0.7249   -5.7752   -2.1060 H         1 <0>         0.0866
     51 H13        -0.8618   -5.5345   -4.0373 H         1 <0>         0.0649
     52 H14        -0.1862   -7.0258   -4.7358 H         1 <0>         0.0584
     53 H15        -1.4420   -6.8267   -1.9623 H         1 <0>         0.0754
     54 H16        -2.5463   -7.9651   -4.5703 H         1 <0>         0.0511
     55 H17        -3.3359   -8.0638   -2.9781 H         1 <0>         0.0581
     56 H18        -3.1111   -6.4823   -3.7635 H         1 <0>         0.0538
     57 H19         0.2684   -8.6036   -2.2192 H         1 <0>         0.0570
     58 H20        -1.3624   -9.3025   -2.0763 H         1 <0>         0.0560
     59 H21        -0.5728   -9.2038   -3.6685 H         1 <0>         0.0520
     60 H22         4.5915   -7.0791   -4.5891 H         1 <0>         0.0752
     61 H23         4.3845   -5.8650   -3.3040 H         1 <0>         0.0681
     62 H24         3.4066   -7.3521   -3.2892 H         1 <0>         0.0748
     63 H25         2.6113  -10.7923   -5.1879 H         1 <0>         0.1410
     64 H26         1.5989  -12.4592   -6.6749 H         1 <0>         0.1358
     65 H27         0.2282  -11.7613   -8.5915 H         1 <0>         0.1347
     66 H28        -0.1513   -9.3777   -9.0502 H         1 <0>         0.1375
     67 H29         3.2609   -4.7554   -7.5995 H         1 <0>         0.1234
     68 H30         3.0310   -2.3533   -7.9054 H         1 <0>         0.1341
     69 H31         1.6381   -0.3128   -7.7739 H         1 <0>         0.1293
     70 H32        -0.4951    0.7350   -7.2426 H         1 <0>         0.1250
     71 H33        -2.3828   -0.6007   -6.4104 H         1 <0>         0.1236
     72 H34        -2.1675   -3.0067   -6.0978 H         1 <0>         0.1239
     73 H35        -0.7803   -5.0558   -6.2376 H         1 <0>         0.1239
@<TRIPOS>BOND
     1    1    2 1
     2    1   40 1
     3    1   41 1
     4    1   42 1
     5    2    3 1
     6    2   43 1
     7    2   44 1
     8    3    4 1
     9    4    5 2
    10    4    6 1
    11    6    7 1
    12    6   45 1
    13    6   46 1
    14    7    8 1
    15    7   47 1
    16    7   48 1
    17    8    9 2
    18    8   10 am
    19   10   11 1
    20   10   16 1
    21   11   12 1
    22   11   49 1
    23   11   50 1
    24   12   13 1
    25   12   51 1
    26   12   52 1
    27   13   14 1
    28   13   15 1
    29   13   53 1
    30   14   54 1
    31   14   55 1
    32   14   56 1
    33   15   57 1
    34   15   58 1
    35   15   59 1
    36   16   17 1
    37   16   18 1
    38   16   19 1
    39   18   60 1
    40   18   61 1
    41   18   62 1
    42   19   29 1
    43   19   20 2
    44   20   21 1
    45   21   26 ar
    46   21   22 ar
    47   22   23 ar
    48   22   63 1
    49   23   24 ar
    50   23   64 1
    51   24   25 ar
    52   24   65 1
    53   25   26 ar
    54   25   66 1
    55   26   27 1
    56   27   28 2
    57   27   29 am
    58   29   30 1
    59   30   39 ar
    60   30   31 ar
    61   31   32 ar
    62   31   67 1
    63   32   33 ar
    64   32   68 1
    65   33   38 ar
    66   33   34 ar
    67   34   35 ar
    68   34   69 1
    69   35   36 ar
    70   35   70 1
    71   36   37 ar
    72   36   71 1
    73   37   38 ar
    74   37   72 1
    75   38   39 ar
    76   39   73 1
@<TRIPOS>MOLECULE
ZINC35869406
   70    71     0     0     0
SMALL
USER_CHARGES

@<TRIPOS>ATOM
      1 C1          1.2982    0.7038    1.2171 C.3       1 <0>        -0.1530
      2 C2          0.8495   -0.6444    0.6499 C.3       1 <0>         0.0612
      3 O1          1.7187   -1.0246   -0.4188 O.3       1 <0>        -0.3571
      4 C3          1.4589   -2.1976   -1.0315 C.2       1 <0>         0.5392
      5 O2          0.5196   -2.8787   -0.6676 O.2       1 <0>        -0.4935
      6 C4          2.3094   -2.6518   -2.1367 C.2       1 <0>        -0.0575
      7 C5          2.1527   -3.8090   -2.8404 C.2       1 <0>        -0.0135
      8 C6          3.1854   -3.8477   -3.8073 C.2       1 <0>        -0.2643
      9 C7          3.9356   -2.6931   -3.6451 C.2       1 <0>         0.1489
     10 N1          3.4001   -1.9784   -2.6449 N.pl3     1 <0>        -0.4075
     11 C8          3.8980   -0.6869   -2.1648 C.3       1 <0>         0.0582
     12 C9          5.1436   -2.3047   -4.4581 C.3       1 <0>        -0.1056
     13 C10         3.4180   -4.9077   -4.7932 C.2       1 <0>         0.4201
     14 O3          4.4079   -4.8779   -5.4940 O.2       1 <0>        -0.4462
     15 C11         2.4274   -6.0344   -4.9361 C.3       1 <0>         0.1065
     16 H1          2.1600   -6.4105   -3.9486 H         1 <0>         0.1153
     17 C12         1.1714   -5.5225   -5.6441 C.3       1 <0>        -0.1567
     18 N2          3.0264   -7.1143   -5.7242 N.pl3     1 <0>        -0.9789
     19 C13         2.6362   -7.3032   -7.1236 C.3       1 <0>         0.1462
     20 C14         3.4427   -6.3791   -7.9991 C.2       1 <0>        -0.1748
     21 C15         4.1440   -6.8649   -8.9933 C.2       1 <0>        -0.1665
     22 S1          4.1447   -8.1215   -5.0333 S.o2      1 <0>         2.6864
     23 O4          4.9251   -8.6517   -6.0959 O.2       1 <0>        -0.9456
     24 O5          4.7202   -7.4063   -3.9487 O.2       1 <0>        -0.9483
     25 C16         3.2627   -9.4761   -4.3318 C.ar      1 <0>        -0.6850
     26 C17         2.8134   -9.4065   -3.0264 C.ar      1 <0>        -0.0192
     27 C18         2.1215  -10.4692   -2.4761 C.ar      1 <0>        -0.1351
     28 C19         1.8785  -11.6012   -3.2313 C.ar      1 <0>        -0.0123
     29 C20         2.3271  -11.6704   -4.5370 C.ar      1 <0>        -0.1412
     30 C21         3.0153  -10.6060   -5.0887 C.ar      1 <0>        -0.0173
     31 C22         1.1251  -12.7601   -2.6310 C.3       1 <0>        -0.0386
     32 C23        -0.2683  -12.2955   -2.2027 C.3       1 <0>        -0.1399
     33 C24         0.9938  -13.8759   -3.6696 C.3       1 <0>        -0.1478
     34 C25         1.8849  -13.2855   -1.4114 C.3       1 <0>        -0.1413
     35 C26         1.0834   -4.8494   -2.6284 C.3       1 <0>        -0.1187
     36 H2          2.3185    0.6192    1.5912 H         1 <0>         0.0668
     37 H3          1.2606    1.4590    0.4320 H         1 <0>         0.0664
     38 H4          0.6352    0.9938    2.0322 H         1 <0>         0.0821
     39 H5          0.8872   -1.3996    1.4350 H         1 <0>         0.0703
     40 H6         -0.1707   -0.5598    0.2758 H         1 <0>         0.0702
     41 H7          4.6328   -0.8511   -1.3766 H         1 <0>         0.0843
     42 H8          4.3640   -0.1478   -2.9895 H         1 <0>         0.0914
     43 H9          3.0675   -0.1010   -1.7709 H         1 <0>         0.1049
     44 H10         4.8273   -1.7222   -5.3234 H         1 <0>         0.0860
     45 H11         5.8177   -1.7070   -3.8445 H         1 <0>         0.0726
     46 H12         5.6597   -3.2040   -4.7944 H         1 <0>         0.1086
     47 H13         1.4388   -5.1464   -6.6316 H         1 <0>         0.0746
     48 H14         0.4549   -6.3374   -5.7475 H         1 <0>         0.0796
     49 H15         0.7257   -4.7190   -5.0577 H         1 <0>         0.0840
     50 H16         2.8230   -8.3363   -7.4166 H         1 <0>         0.0866
     51 H17         1.5757   -7.0790   -7.2385 H         1 <0>         0.0955
     52 H18         3.4426   -5.3163   -7.8070 H         1 <0>         0.1138
     53 H19         4.7220   -6.2026   -9.6208 H         1 <0>         0.0987
     54 H20         4.1441   -7.9276   -9.1855 H         1 <0>         0.0990
     55 H21         3.0032   -8.5221   -2.4364 H         1 <0>         0.1380
     56 H22         1.7710  -10.4152   -1.4560 H         1 <0>         0.1326
     57 H23         2.1376  -12.5550   -5.1270 H         1 <0>         0.1378
     58 H24         3.3625  -10.6586   -6.1100 H         1 <0>         0.1385
     59 H25        -0.8096  -11.9212   -3.0716 H         1 <0>         0.0584
     60 H26        -0.8133  -13.1338   -1.7685 H         1 <0>         0.0634
     61 H27        -0.1748  -11.5006   -1.4628 H         1 <0>         0.0595
     62 H28         1.9864  -14.2069   -3.9748 H         1 <0>         0.0610
     63 H29         0.4488  -14.7141   -3.2355 H         1 <0>         0.0629
     64 H30         0.4525  -13.5016   -4.5386 H         1 <0>         0.0610
     65 H31         1.9784  -12.4906   -0.6714 H         1 <0>         0.0596
     66 H32         1.3399  -14.1238   -0.9772 H         1 <0>         0.0638
     67 H33         2.8775  -13.6165   -1.7165 H         1 <0>         0.0585
     68 H34         0.2710   -4.6850   -3.3364 H         1 <0>         0.0849
     69 H35         1.5061   -5.8419   -2.7846 H         1 <0>         0.0754
     70 H36         0.6995   -4.7739   -1.6110 H         1 <0>         0.0927
@<TRIPOS>BOND
     1    1    2 1
     2    1   36 1
     3    1   37 1
     4    1   38 1
     5    2    3 1
     6    2   39 1
     7    2   40 1
     8    3    4 1
     9    4    5 2
    10    4    6 1
    11    6   10 1
    12    6    7 2
    13    7    8 1
    14    7   35 1
    15    8    9 2
    16    8   13 1
    17    9   10 1
    18    9   12 1
    19   10   11 1
    20   11   41 1
    21   11   42 1
    22   11   43 1
    23   12   44 1
    24   12   45 1
    25   12   46 1
    26   13   14 2
    27   13   15 1
    28   15   16 1
    29   15   17 1
    30   15   18 1
    31   17   47 1
    32   17   48 1
    33   17   49 1
    34   18   19 1
    35   18   22 1
    36   19   20 1
    37   19   50 1
    38   19   51 1
    39   20   21 2
    40   20   52 1
    41   21   53 1
    42   21   54 1
    43   22   23 2
    44   22   24 2
    45   22   25 1
    46   25   30 ar
    47   25   26 ar
    48   26   27 ar
    49   26   55 1
    50   27   28 ar
    51   27   56 1
    52   28   29 ar
    53   28   31 1
    54   29   30 ar
    55   29   57 1
    56   30   58 1
    57   31   32 1
    58   31   33 1
    59   31   34 1
    60   32   59 1
    61   32   60 1
    62   32   61 1
    63   33   62 1
    64   33   63 1
    65   33   64 1
    66   34   65 1
    67   34   66 1
    68   34   67 1
    69   35   68 1
    70   35   69 1
    71   35   70 1
@<TRIPOS>MOLECULE
ZINC40938263
   60    62     0     0     0
SMALL
USER_CHARGES

@<TRIPOS>ATOM
      1 C1          0.9356    1.9162   -0.2314 C.3       1 <0>        -0.1513
      2 C2          0.9803    0.3986   -0.0422 C.3       1 <0>        -0.1238
      3 C3          1.2620   -0.2749   -1.3868 C.3       1 <0>         0.0632
      4 O1          1.3038   -1.6923   -1.2101 O.3       1 <0>        -0.3498
      5 C4          1.5428   -2.4358   -2.3019 C.2       1 <0>         0.4749
      6 O2          1.7110   -1.9008   -3.3721 O.2       1 <0>        -0.5005
      7 C5          1.6014   -3.9377   -2.1928 C.3       1 <0>        -0.1289
      8 C6          1.8855   -4.5384   -3.5709 C.3       1 <0>         0.0952
      9 N1          1.9424   -5.9985   -3.4649 N.am      1 <0>        -0.5215
     10 C7          3.1000   -6.5828   -3.2055 C.2       1 <0>         0.5459
     11 O3          4.1213   -5.9387   -3.0522 O.2       1 <0>        -0.4550
     12 C8          3.0908   -8.0564   -3.1107 C.2       1 <0>        -0.2548
     13 C9          4.1126   -8.9137   -2.8586 C.2       1 <0>         0.1051
     14 C10         3.9016  -10.3621   -2.9757 C.ar      1 <0>        -0.1041
     15 C11         2.7854  -10.8561   -3.6618 C.ar      1 <0>        -0.0763
     16 C12         2.5902  -12.2154   -3.7698 C.ar      1 <0>        -0.1751
     17 C13         3.4977  -13.0984   -3.1999 C.ar      1 <0>         0.1388
     18 C14         4.6117  -12.6148   -2.5150 C.ar      1 <0>         0.1040
     19 C15         4.8190  -11.2538   -2.4064 C.ar      1 <0>        -0.1319
     20 O4          5.4975  -13.4838   -1.9586 O.3       1 <0>        -0.2995
     21 C16         6.6161  -12.9190   -1.2717 C.3       1 <0>         0.0506
     22 C17         7.4945  -14.0424   -0.7175 C.3       1 <0>        -0.1531
     23 O5          3.2992  -14.4379   -3.3097 O.3       1 <0>        -0.2889
     24 C18         2.1376  -14.8653   -4.0239 C.3       1 <0>         0.0962
     25 C19         2.0848  -16.3713   -4.0419 C.ar      1 <0>        -0.0949
     26 C20         2.6952  -17.0718   -5.0655 C.ar      1 <0>        -0.0798
     27 C21         2.6471  -18.4530   -5.0825 C.ar      1 <0>        -0.1134
     28 C22         1.9878  -19.1345   -4.0750 C.ar      1 <0>        -0.0231
     29 C23         1.3771  -18.4328   -3.0509 C.ar      1 <0>        -0.1133
     30 C24         1.4307  -17.0518   -3.0319 C.ar      1 <0>        -0.0796
     31 Cl1         1.9265  -20.8692   -4.0960 Cl        1 <0>        -0.0636
     32 S1          1.3638   -8.4008   -3.4180 S.3       1 <0>         0.0856
     33 C25         0.8122   -6.7157   -3.6285 C.2       1 <0>         0.2589
     34 S2         -0.7685   -6.1480   -3.9607 S.2       1 <0>        -0.3302
     35 H1          1.8942    2.2626   -0.6175 H         1 <0>         0.0586
     36 H2          0.1458    2.1711   -0.9380 H         1 <0>         0.0591
     37 H3          0.7349    2.3959    0.7265 H         1 <0>         0.0666
     38 H4          1.7702    0.1436    0.6644 H         1 <0>         0.0743
     39 H5          0.0217    0.0521    0.3439 H         1 <0>         0.0751
     40 H6          0.4722   -0.0200   -2.0934 H         1 <0>         0.0710
     41 H7          2.2207    0.0715   -1.7729 H         1 <0>         0.0698
     42 H8          2.3957   -4.2211   -1.5022 H         1 <0>         0.1132
     43 H9          0.6472   -4.3126   -1.8227 H         1 <0>         0.1181
     44 H10         1.0912   -4.2550   -4.2616 H         1 <0>         0.1252
     45 H11         2.8397   -4.1635   -3.9411 H         1 <0>         0.1166
     46 H12         5.0808   -8.5305   -2.5720 H         1 <0>         0.1644
     47 H13         2.0777  -10.1716   -4.1058 H         1 <0>         0.1378
     48 H14         1.7288  -12.5953   -4.2990 H         1 <0>         0.1473
     49 H15         5.6839  -10.8781   -1.8799 H         1 <0>         0.1473
     50 H16         7.1981  -12.3105   -1.9639 H         1 <0>         0.0643
     51 H17         6.2615  -12.2963   -0.4504 H         1 <0>         0.0641
     52 H18         8.3478  -13.6116   -0.1935 H         1 <0>         0.0806
     53 H19         6.9125  -14.6509   -0.0253 H         1 <0>         0.0679
     54 H20         7.8492  -14.6651   -1.5388 H         1 <0>         0.0679
     55 H21         1.2456  -14.4763   -3.5330 H         1 <0>         0.0792
     56 H22         2.1819  -14.4910   -5.0467 H         1 <0>         0.0788
     57 H23         3.2096  -16.5398   -5.8521 H         1 <0>         0.1352
     58 H24         3.1238  -19.0002   -5.8824 H         1 <0>         0.1379
     59 H25         0.8620  -18.9641   -2.2643 H         1 <0>         0.1381
     60 H26         0.9581  -16.5041   -2.2300 H         1 <0>         0.1355
@<TRIPOS>BOND
     1    1    2 1
     2    1   35 1
     3    1   36 1
     4    1   37 1
     5    2    3 1
     6    2   38 1
     7    2   39 1
     8    3    4 1
     9    3   40 1
    10    3   41 1
    11    4    5 1
    12    5    6 2
    13    5    7 1
    14    7    8 1
    15    7   42 1
    16    7   43 1
    17    8    9 1
    18    8   44 1
    19    8   45 1
    20    9   33 1
    21    9   10 am
    22   10   11 2
    23   10   12 1
    24   12   13 2
    25   12   32 1
    26   13   14 1
    27   13   46 1
    28   14   19 ar
    29   14   15 ar
    30   15   16 ar
    31   15   47 1
    32   16   17 ar
    33   16   48 1
    34   17   18 ar
    35   17   23 1
    36   18   19 ar
    37   18   20 1
    38   19   49 1
    39   20   21 1
    40   21   22 1
    41   21   50 1
    42   21   51 1
    43   22   52 1
    44   22   53 1
    45   22   54 1
    46   23   24 1
    47   24   25 1
    48   24   55 1
    49   24   56 1
    50   25   30 ar
    51   25   26 ar
    52   26   27 ar
    53   26   57 1
    54   27   28 ar
    55   27   58 1
    56   28   29 ar
    57   28   31 1
    58   29   30 ar
    59   29   59 1
    60   30   60 1
    61   32   33 1
    62   33   34 2
@<TRIPOS>MOLECULE
ZINC09204446
   46    48     0     0     0
SMALL
USER_CHARGES
2-(3,4-dimethylphenoxy)-N-(2-furylmethyl)-N-(2-thienylmethyl)acetamide
@<TRIPOS>ATOM
      1 C1          4.4288   -2.8342   -9.2051 C.3       1 <0>        -0.1143
      2 C2          4.0396   -2.4876   -7.7911 C.ar      1 <0>        -0.1227
      3 C3          4.3101   -1.2275   -7.2898 C.ar      1 <0>        -0.0751
      4 C4          3.9489   -0.9054   -5.9961 C.ar      1 <0>        -0.2128
      5 C5          3.3253   -1.8514   -5.1953 C.ar      1 <0>         0.1257
      6 C6          3.0556   -3.1149   -5.7002 C.ar      1 <0>        -0.1441
      7 C7          3.4133   -3.4301   -6.9970 C.ar      1 <0>        -0.0451
      8 C8          3.1210   -4.8028   -7.5461 C.3       1 <0>        -0.1205
      9 O1          2.9744   -1.5389   -3.9201 O.3       1 <0>        -0.2888
     10 C9          3.2832   -0.2193   -3.4671 C.3       1 <0>         0.0370
     11 C10         2.8236   -0.0572   -2.0411 C.2       1 <0>         0.5246
     12 O2          2.2847   -0.9809   -1.4690 O.2       1 <0>        -0.4983
     13 N1          3.0115    1.1142   -1.4015 N.am      1 <0>        -0.6028
     14 C11         3.6624    2.2299   -2.0926 C.3       1 <0>         0.1848
     15 C12         5.1512    2.1587   -1.8701 C.2       1 <0>        -0.0444
     16 C13         6.0327    1.5062   -2.6490 C.2       1 <0>        -0.1929
     17 C14         7.3098    1.7019   -2.0750 C.2       1 <0>        -0.2135
     18 C15         7.1324    2.4622   -0.9796 C.2       1 <0>        -0.0262
     19 O3          5.8237    2.7406   -0.8637 O.3       1 <0>        -0.1693
     20 C16         2.5647    1.2717   -0.0152 C.3       1 <0>         0.2023
     21 C17         1.1459    1.7795    0.0007 C.2       1 <0>        -0.1721
     22 C18        -0.0126    1.0758    0.0080 C.2       1 <0>        -0.1289
     23 C19        -1.2130    1.7610    0.0173 C.2       1 <0>        -0.1596
     24 C20        -1.1962    3.1163    0.0303 C.2       1 <0>        -0.1641
     25 S1          0.5548    3.4640    0.0154 S.3       1 <0>         0.0325
     26 H1          3.6072   -2.5895   -9.8784 H         1 <0>         0.0691
     27 H2          5.3132   -2.2637   -9.4887 H         1 <0>         0.0644
     28 H3          4.6474   -3.9000   -9.2710 H         1 <0>         0.0701
     29 H4          4.7998   -0.4930   -7.9120 H         1 <0>         0.1261
     30 H5          4.1556    0.0806   -5.6068 H         1 <0>         0.1247
     31 H6          2.5660   -3.8514   -5.0804 H         1 <0>         0.1325
     32 H7          2.1351   -4.8058   -8.0108 H         1 <0>         0.0751
     33 H8          3.8739   -5.0646   -8.2896 H         1 <0>         0.0744
     34 H9          3.1427   -5.5307   -6.7351 H         1 <0>         0.0691
     35 H10         2.7744    0.5097   -4.0979 H         1 <0>         0.0939
     36 H11         4.3599   -0.0588   -3.5223 H         1 <0>         0.0962
     37 H12         3.4513    2.1689   -3.1602 H         1 <0>         0.1131
     38 H13         3.2811    3.1726   -1.7001 H         1 <0>         0.1058
     39 H14         5.8079    0.9409   -3.5414 H         1 <0>         0.1470
     40 H15         8.2478    1.3148   -2.4448 H         1 <0>         0.1515
     41 H16         7.9110    2.7964   -0.3099 H         1 <0>         0.2061
     42 H17         3.2115    1.9845    0.4962 H         1 <0>         0.0992
     43 H18         2.6116    0.3087    0.4933 H         1 <0>         0.1115
     44 H19         0.0021   -0.0041    0.0020 H         1 <0>         0.1372
     45 H20        -2.1503    1.2245    0.0184 H         1 <0>         0.1351
     46 H21        -2.0266    3.8068    0.0414 H         1 <0>         0.1866
@<TRIPOS>BOND
     1    1    2 1
     2    1   26 1
     3    1   27 1
     4    1   28 1
     5    2    7 ar
     6    2    3 ar
     7    3    4 ar
     8    3   29 1
     9    4    5 ar
    10    4   30 1
    11    5    6 ar
    12    5    9 1
    13    6    7 ar
    14    6   31 1
    15    7    8 1
    16    8   32 1
    17    8   33 1
    18    8   34 1
    19    9   10 1
    20   10   11 1
    21   10   35 1
    22   10   36 1
    23   11   12 2
    24   11   13 am
    25   13   14 1
    26   13   20 1
    27   14   15 1
    28   14   37 1
    29   14   38 1
    30   15   19 1
    31   15   16 2
    32   16   17 1
    33   16   39 1
    34   17   18 2
    35   17   40 1
    36   18   19 1
    37   18   41 1
    38   20   21 1
    39   20   42 1
    40   20   43 1
    41   21   25 1
    42   21   22 2
    43   22   23 1
    44   22   44 1
    45   23   24 2
    46   23   45 1
    47   24   25 1
    48   24   46 1
@<TRIPOS>MOLECULE
ZINC42267164
   39    39     0     0     0
SMALL
USER_CHARGES

@<TRIPOS>ATOM
      1 C1          0.0146    1.5679    0.0212 C.3       1 <0>        -0.1634
      2 C2         -0.0379    0.0444   -0.1097 C.3       1 <0>        -0.1313
      3 C3          0.6563   -0.5951    1.0945 C.3       1 <0>         0.1373
      4 H1          0.2073   -0.2201    2.0142 H         1 <0>         0.1026
      5 C4          0.4923   -2.1149    1.0298 C.3       1 <0>        -0.1655
      6 N1          2.0814   -0.2564    1.0733 N.pl3     1 <0>        -0.9767
      7 C5          2.9144   -0.6642   -0.0608 C.3       1 <0>         0.1180
      8 C6          2.8527    0.4079   -1.1505 C.3       1 <0>         0.0250
      9 O1          3.4315    1.6191   -0.6605 O.3       1 <0>        -0.3629
     10 C7          3.4241    2.6908   -1.6057 C.3       1 <0>         0.0289
     11 S1          2.7507    0.5875    2.3311 S.o2      1 <0>         2.6712
     12 O2          3.9067    1.2342    1.8168 O.2       1 <0>        -0.8931
     13 O3          1.6902    1.3020    2.9507 O.2       1 <0>        -0.9386
     14 C8          3.3170   -0.5946    3.5087 C.ar      1 <0>        -0.7200
     15 C9          2.4703   -1.0306    4.5140 C.ar      1 <0>         0.2367
     16 C10         2.9152   -1.9591    5.4389 C.ar      1 <0>        -0.2009
     17 C11         4.2067   -2.4514    5.3583 C.ar      1 <0>         0.1945
     18 C12         5.0521   -2.0147    4.3528 C.ar      1 <0>        -0.1593
     19 C13         4.6049   -1.0910    3.4254 C.ar      1 <0>         0.0418
     20 Br1         5.7579   -0.5008    2.0477 Br        1 <0>         0.0383
     21 F1          4.6420   -3.3575    6.2609 F         1 <0>        -0.1115
     22 F2          1.2103   -0.5494    4.5922 F         1 <0>        -0.0968
     23 H2          1.0541    1.8939    0.0568 H         1 <0>         0.0606
     24 H3         -0.4800    2.0236   -0.8366 H         1 <0>         0.0550
     25 H4         -0.4929    1.8716    0.9368 H         1 <0>         0.0621
     26 H5         -1.0774   -0.2816   -0.1452 H         1 <0>         0.0758
     27 H6          0.4696   -0.2593   -1.0252 H         1 <0>         0.0722
     28 H7          0.9412   -2.4900    0.1101 H         1 <0>         0.0645
     29 H8          0.9868   -2.5706    1.8876 H         1 <0>         0.0562
     30 H9         -0.5681   -2.3670    1.0456 H         1 <0>         0.0723
     31 H10         3.9455   -0.7860    0.2711 H         1 <0>         0.0925
     32 H11         2.5471   -1.6096   -0.4600 H         1 <0>         0.0985
     33 H12         3.4066    0.0686   -2.0258 H         1 <0>         0.0572
     34 H13         1.8133    0.5872   -1.4254 H         1 <0>         0.0665
     35 H14         3.9899    2.3989   -2.4904 H         1 <0>         0.0386
     36 H15         2.3966    2.9174   -1.8900 H         1 <0>         0.0376
     37 H16         3.8803    3.5736   -1.1576 H         1 <0>         0.0863
     38 H17         2.2554   -2.2992    6.2233 H         1 <0>         0.1666
     39 H18         6.0597   -2.3984    4.2900 H         1 <0>         0.1635
@<TRIPOS>BOND
     1    1    2 1
     2    1   23 1
     3    1   24 1
     4    1   25 1
     5    2    3 1
     6    2   26 1
     7    2   27 1
     8    3    4 1
     9    3    5 1
    10    3    6 1
    11    5   28 1
    12    5   29 1
    13    5   30 1
    14    6    7 1
    15    6   11 1
    16    7    8 1
    17    7   31 1
    18    7   32 1
    19    8    9 1
    20    8   33 1
    21    8   34 1
    22    9   10 1
    23   10   35 1
    24   10   36 1
    25   10   37 1
    26   11   12 2
    27   11   13 2
    28   11   14 1
    29   14   19 ar
    30   14   15 ar
    31   15   16 ar
    32   15   22 1
    33   16   17 ar
    34   16   38 1
    35   17   18 ar
    36   17   21 1
    37   18   19 ar
    38   18   39 1
    39   19   20 1
@<TRIPOS>MOLECULE
ZINC57651159
   54    55     0     0     0
SMALL
USER_CHARGES

@<TRIPOS>ATOM
      1 C1         -0.0184    1.5028    0.0103 C.3       1 <0>        -0.0661
      2 C2          0.0021   -0.0041    0.0020 C.2       1 <0>         0.0083
      3 C3          0.0077   -0.7847   -1.0919 C.2       1 <0>        -0.0108
      4 N1          0.0283   -2.0898   -0.6538 N.pl3     1 <0>        -0.4338
      5 C4          0.0344   -2.0527    0.7068 C.2       1 <0>         0.1819
      6 N2          0.0236   -0.7963    1.0870 N.2       1 <0>        -0.4851
      7 S1          0.0593   -3.4530    1.7760 S.3       1 <0>         0.0387
      8 C5          0.0573   -2.7337    3.4413 C.3       1 <0>        -0.0978
      9 H1         -0.7935   -2.0604    3.5453 H         1 <0>         0.1199
     10 C6          1.3549   -1.9535    3.6614 C.3       1 <0>        -0.1429
     11 C7         -0.0460   -3.8354    4.4643 C.2       1 <0>         0.5407
     12 O1          0.3331   -4.9545    4.1907 O.2       1 <0>        -0.5173
     13 N3         -0.5598   -3.5772    5.6832 N.am      1 <0>        -0.6048
     14 C8         -1.0178   -2.2255    6.0137 C.3       1 <0>         0.0669
     15 C9         -0.6603   -4.6483    6.6777 C.3       1 <0>         0.1554
     16 C10         0.6035   -4.6927    7.4975 C.ar      1 <0>        -0.0832
     17 C11         1.6648   -5.4792    7.0891 C.ar      1 <0>        -0.1051
     18 C12         2.8245   -5.5210    7.8400 C.ar      1 <0>        -0.0918
     19 C13         2.9243   -4.7768    9.0005 C.ar      1 <0>        -0.1485
     20 C14         1.8623   -3.9890    9.4103 C.ar      1 <0>         0.0947
     21 C15         0.7032   -3.9432    8.6540 C.ar      1 <0>        -0.1410
     22 F1          1.9585   -3.2615   10.5447 F         1 <0>        -0.1393
     23 C16         0.0407   -3.2906   -1.4929 C.3       1 <0>         0.1054
     24 C17         1.4874   -3.6884   -1.7925 C.3       1 <0>        -0.1110
     25 C18         1.5037   -5.0103   -2.5629 C.3       1 <0>        -0.1459
     26 C19         2.1518   -2.5984   -2.6359 C.3       1 <0>        -0.1530
     27 C20        -0.0062   -0.3200   -2.5254 C.3       1 <0>        -0.0783
     28 H2          1.0042    1.8801    0.0026 H         1 <0>         0.0674
     29 H3         -0.5455    1.8639   -0.8728 H         1 <0>         0.0683
     30 H4         -0.5286    1.8543    0.9071 H         1 <0>         0.0688
     31 H5          1.4297   -1.1566    2.9215 H         1 <0>         0.0909
     32 H6          1.3537   -1.5212    4.6621 H         1 <0>         0.0683
     33 H7          2.2058   -2.6267    3.5575 H         1 <0>         0.0700
     34 H8         -2.0704   -2.1237    5.7494 H         1 <0>         0.0651
     35 H9         -0.8930   -2.0507    7.0824 H         1 <0>         0.0776
     36 H10        -0.4308   -1.4963    5.4554 H         1 <0>         0.0789
     37 H11        -1.5112   -4.4581    7.3318 H         1 <0>         0.0938
     38 H12        -0.7982   -5.6032    6.1705 H         1 <0>         0.1007
     39 H13         1.5875   -6.0616    6.1829 H         1 <0>         0.1365
     40 H14         3.6529   -6.1357    7.5200 H         1 <0>         0.1344
     41 H15         3.8303   -4.8101    9.5874 H         1 <0>         0.1358
     42 H16        -0.1243   -3.3255    8.9704 H         1 <0>         0.1340
     43 H17        -0.4590   -4.1053   -0.9688 H         1 <0>         0.0947
     44 H18        -0.4809   -3.0859   -2.4278 H         1 <0>         0.0946
     45 H19         2.0330   -3.8067   -0.8564 H         1 <0>         0.0811
     46 H20         0.9580   -4.8920   -3.4990 H         1 <0>         0.0584
     47 H21         2.5343   -5.2937   -2.7764 H         1 <0>         0.0646
     48 H22         1.0303   -5.7868   -1.9620 H         1 <0>         0.0605
     49 H23         2.1402   -1.6567   -2.0871 H         1 <0>         0.0597
     50 H24         3.1825   -2.8819   -2.8494 H         1 <0>         0.0600
     51 H25         1.6062   -2.4802   -3.5721 H         1 <0>         0.0574
     52 H26         1.0179   -0.1935   -2.8763 H         1 <0>         0.0761
     53 H27        -0.5130   -1.0616   -3.1428 H         1 <0>         0.0642
     54 H28        -0.5338    0.6314   -2.5938 H         1 <0>         0.0820
@<TRIPOS>BOND
     1    1    2 1
     2    1   28 1
     3    1   29 1
     4    1   30 1
     5    2    6 1
     6    2    3 2
     7    3    4 1
     8    3   27 1
     9    4    5 1
    10    4   23 1
    11    5    6 2
    12    5    7 1
    13    7    8 1
    14    8    9 1
    15    8   10 1
    16    8   11 1
    17   10   31 1
    18   10   32 1
    19   10   33 1
    20   11   12 2
    21   11   13 am
    22   13   14 1
    23   13   15 1
    24   14   34 1
    25   14   35 1
    26   14   36 1
    27   15   16 1
    28   15   37 1
    29   15   38 1
    30   16   21 ar
    31   16   17 ar
    32   17   18 ar
    33   17   39 1
    34   18   19 ar
    35   18   40 1
    36   19   20 ar
    37   19   41 1
    38   20   21 ar
    39   20   22 1
    40   21   42 1
    41   23   24 1
    42   23   43 1
    43   23   44 1
    44   24   25 1
    45   24   26 1
    46   24   45 1
    47   25   46 1
    48   25   47 1
    49   25   48 1
    50   26   49 1
    51   26   50 1
    52   26   51 1
    53   27   52 1
    54   27   53 1
    55   27   54 1
@<TRIPOS>MOLECULE
ZINC60186915
   45    45     0     0     0
SMALL
USER_CHARGES

@<TRIPOS>ATOM
      1 C1         -0.0187    1.5258    0.0104 C.3       1 <0>        -0.1486
      2 C2          0.0021   -0.0041    0.0020 C.3       1 <0>        -0.0905
      3 C3          0.7421   -0.5109    1.2415 C.3       1 <0>        -0.1534
      4 C4         -1.4333   -0.5336    0.0129 C.3       1 <0>        -0.0884
      5 C5         -1.4159   -2.0348   -0.1192 C.ar      1 <0>        -0.0151
      6 C6         -1.4497   -2.6188   -1.3716 C.ar      1 <0>        -0.1402
      7 C7         -1.4338   -3.9958   -1.4928 C.ar      1 <0>         0.0030
      8 C8         -1.3836   -4.7886   -0.3615 C.ar      1 <0>        -0.6874
      9 C9         -1.3488   -4.2045    0.8909 C.ar      1 <0>        -0.0159
     10 C10        -1.3605   -2.8275    1.0119 C.ar      1 <0>        -0.1399
     11 S1         -1.3644   -6.5437   -0.5159 S.o2      1 <0>         2.6844
     12 O1         -1.8660   -7.0645    0.7074 O.2       1 <0>        -0.9448
     13 O2         -1.9549   -6.8474   -1.7722 O.2       1 <0>        -0.9473
     14 N1          0.2218   -7.0094   -0.6135 N.pl3     1 <0>        -0.9863
     15 C11         0.9686   -7.3260    0.6064 C.3       1 <0>         0.1173
     16 C12         0.9210   -8.8346    0.8565 C.3       1 <0>         0.0390
     17 O3          1.6097   -9.5138   -0.1954 O.3       1 <0>        -0.3917
     18 C13         1.6243  -10.9360   -0.0572 C.3       1 <0>         0.0301
     19 C14         0.8781   -7.1047   -1.9198 C.3       1 <0>         0.0761
     20 C15         1.6228   -5.8007   -2.2128 C.3       1 <0>         0.4266
     21 F1          2.5857   -5.5808   -1.2220 F         1 <0>        -0.1784
     22 F2          2.2496   -5.8918   -3.4602 F         1 <0>        -0.1771
     23 F3          0.7140   -4.7371   -2.2240 F         1 <0>        -0.1801
     24 H1          1.0039    1.9031    0.0027 H         1 <0>         0.0577
     25 H2         -0.5459    1.8868   -0.8726 H         1 <0>         0.0560
     26 H3         -0.5289    1.8773    0.9072 H         1 <0>         0.0563
     27 H4          0.5123   -0.3556   -0.8948 H         1 <0>         0.0723
     28 H5          0.7568   -1.6008    1.2356 H         1 <0>         0.0582
     29 H6          1.7647   -0.1336    1.2338 H         1 <0>         0.0559
     30 H7          0.2319   -0.1594    2.1383 H         1 <0>         0.0559
     31 H8         -1.9156   -0.2570    0.9504 H         1 <0>         0.0792
     32 H9         -1.9862   -0.1019   -0.8214 H         1 <0>         0.0792
     33 H10        -1.4890   -1.9994   -2.2555 H         1 <0>         0.1320
     34 H11        -1.4609   -4.4521   -2.4712 H         1 <0>         0.1401
     35 H12        -1.3099   -4.8240    1.7747 H         1 <0>         0.1381
     36 H13        -1.3296   -2.3711    1.9902 H         1 <0>         0.1325
     37 H14         2.0052   -7.0095    0.4902 H         1 <0>         0.1011
     38 H15         0.5217   -6.8032    1.4520 H         1 <0>         0.1056
     39 H16         1.3999   -9.0603    1.8093 H         1 <0>         0.0685
     40 H17        -0.1171   -9.1657    0.8842 H         1 <0>         0.0617
     41 H18         0.6008  -11.3107   -0.0484 H         1 <0>         0.0431
     42 H19         2.1655  -11.3769   -0.8943 H         1 <0>         0.0882
     43 H20         2.1178  -11.2053    0.8767 H         1 <0>         0.0435
     44 H21         1.5862   -7.9334   -1.9110 H         1 <0>         0.1457
     45 H22         0.1279   -7.2761   -2.6917 H         1 <0>         0.1378
@<TRIPOS>BOND
     1    1    2 1
     2    1   24 1
     3    1   25 1
     4    1   26 1
     5    2    3 1
     6    2    4 1
     7    2   27 1
     8    3   28 1
     9    3   29 1
    10    3   30 1
    11    4    5 1
    12    4   31 1
    13    4   32 1
    14    5   10 ar
    15    5    6 ar
    16    6    7 ar
    17    6   33 1
    18    7    8 ar
    19    7   34 1
    20    8    9 ar
    21    8   11 1
    22    9   10 ar
    23    9   35 1
    24   10   36 1
    25   11   12 2
    26   11   13 2
    27   11   14 1
    28   14   15 1
    29   14   19 1
    30   15   16 1
    31   15   37 1
    32   15   38 1
    33   16   17 1
    34   16   39 1
    35   16   40 1
    36   17   18 1
    37   18   41 1
    38   18   42 1
    39   18   43 1
    40   19   20 1
    41   19   44 1
    42   19   45 1
    43   20   21 1
    44   20   22 1
    45   20   23 1
@<TRIPOS>MOLECULE
ZINC66559308
   48    50     0     0     0
SMALL
USER_CHARGES

@<TRIPOS>ATOM
      1 C1         -0.1483    1.5107   -1.0306 C.3       1 <0>        -0.1580
      2 C2         -0.0806   -0.0025   -0.8148 C.3       1 <0>        -0.1229
      3 C3         -1.4683   -0.5268   -0.4402 C.3       1 <0>        -0.1329
      4 C4         -1.4006   -2.0400   -0.2244 C.3       1 <0>         0.0397
      5 N1         -2.7558   -2.5655   -0.0120 N.3       1 <0>        -0.5156
      6 C5         -2.7494   -4.0336    0.0383 C.3       1 <0>         0.1218
      7 C6         -4.1518   -4.5491   -0.1575 C.2       1 <0>         0.0584
      8 C7         -4.5813   -4.8993   -1.3986 C.2       1 <0>        -0.1840
      9 S1         -6.2539   -5.4177   -1.0351 S.3       1 <0>         0.0520
     10 C8         -6.1987   -5.1122    0.7257 C.2       1 <0>         0.1409
     11 N2         -4.9589   -4.6658    0.8711 N.2       1 <0>        -0.4912
     12 C9         -7.2505   -5.3094    1.7456 C.ar      1 <0>        -0.0491
     13 C10        -6.9981   -4.9980    3.0823 C.ar      1 <0>        -0.0459
     14 C11        -7.9837   -5.1837    4.0292 C.ar      1 <0>        -0.1284
     15 C12        -9.2217   -5.6783    3.6576 C.ar      1 <0>        -0.0705
     16 C13        -9.4807   -5.9896    2.3354 C.ar      1 <0>        -0.1501
     17 C14        -8.5042   -5.8030    1.3748 C.ar      1 <0>         0.1209
     18 F1         -8.7594   -6.1019    0.0823 F         1 <0>        -0.1257
     19 C15        -3.3552   -1.9997    1.2040 C.3       1 <0>         0.0781
     20 H1         -4.1499   -2.6578    1.5555 H         1 <0>         0.1175
     21 C16        -2.2774   -1.8737    2.2934 C.3       1 <0>        -0.1698
     22 C17        -2.8504   -0.9957    3.4424 C.3       1 <0>        -0.5712
     23 S2         -3.7306    0.2988    2.4706 S.o2      1 <0>         2.3581
     24 O1         -2.8525    1.3961    2.2604 O.2       1 <0>        -0.9323
     25 O2         -5.0068    0.5260    3.0527 O.2       1 <0>        -0.9373
     26 C18        -3.9464   -0.6054    0.8846 C.3       1 <0>        -0.5864
     27 H2          0.8403    1.8842   -1.2975 H         1 <0>         0.0551
     28 H3         -0.8497    1.7320   -1.8351 H         1 <0>         0.0544
     29 H4         -0.4837    1.9939   -0.1129 H         1 <0>         0.0613
     30 H5          0.2548   -0.4857   -1.7325 H         1 <0>         0.0637
     31 H6          0.6208   -0.2238   -0.0103 H         1 <0>         0.0619
     32 H7         -1.8037   -0.0436    0.4775 H         1 <0>         0.0655
     33 H8         -2.1697   -0.3056   -1.2446 H         1 <0>         0.0797
     34 H9         -0.9610   -2.5130   -1.1026 H         1 <0>         0.0844
     35 H10        -0.7863   -2.2552    0.6500 H         1 <0>         0.0506
     36 H11        -2.1061   -4.4214   -0.7516 H         1 <0>         0.0959
     37 H12        -2.3734   -4.3623    1.0072 H         1 <0>         0.0587
     38 H13        -4.0578   -4.8716   -2.3428 H         1 <0>         0.1995
     39 H14        -6.0325   -4.6125    3.3750 H         1 <0>         0.1442
     40 H15        -7.7887   -4.9429    5.0638 H         1 <0>         0.1400
     41 H16        -9.9891   -5.8222    4.4038 H         1 <0>         0.1408
     42 H17       -10.4488   -6.3755    2.0521 H         1 <0>         0.1453
     43 H18        -2.0241   -2.8622    2.6767 H         1 <0>         0.1003
     44 H19        -1.3874   -1.4012    1.8778 H         1 <0>         0.1004
     45 H20        -3.5442   -1.5625    4.0632 H         1 <0>         0.1396
     46 H21        -2.0510   -0.5621    4.0433 H         1 <0>         0.1413
     47 H22        -3.3859   -0.1220    0.0845 H         1 <0>         0.1608
     48 H23        -5.0023   -0.6834    0.6257 H         1 <0>         0.1405
@<TRIPOS>BOND
     1    1    2 1
     2    1   27 1
     3    1   28 1
     4    1   29 1
     5    2    3 1
     6    2   30 1
     7    2   31 1
     8    3    4 1
     9    3   32 1
    10    3   33 1
    11    4    5 1
    12    4   34 1
    13    4   35 1
    14    5    6 1
    15    5   19 1
    16    6    7 1
    17    6   36 1
    18    6   37 1
    19    7   11 1
    20    7    8 2
    21    8    9 1
    22    8   38 1
    23    9   10 1
    24   10   11 2
    25   10   12 1
    26   12   17 ar
    27   12   13 ar
    28   13   14 ar
    29   13   39 1
    30   14   15 ar
    31   14   40 1
    32   15   16 ar
    33   15   41 1
    34   16   17 ar
    35   16   42 1
    36   17   18 1
    37   19   20 1
    38   19   26 1
    39   19   21 1
    40   21   22 1
    41   21   43 1
    42   21   44 1
    43   22   23 1
    44   22   45 1
    45   22   46 1
    46   23   24 2
    47   23   25 2
    48   23   26 1
    49   26   47 1
    50   26   48 1
@<TRIPOS>MOLECULE
ZINC06271202
   49    50     0     0     0
SMALL
USER_CHARGES
N-[3-(diethylsulfamoyl)phenyl]-2-[3-(trifluoromethyl)phenyl]-acetamide
@<TRIPOS>ATOM
      1 C1         -1.8792    8.0055   -1.3417 C.3       1 <0>        -0.1759
      2 C2         -1.5049    6.5527   -1.6420 C.3       1 <0>         0.1202
      3 N1         -0.1796    6.2653   -1.0879 N.pl3     1 <0>        -0.9952
      4 C3          1.0229    6.5874   -1.8602 C.3       1 <0>         0.1077
      5 C4          1.3361    5.4373   -2.8195 C.3       1 <0>        -0.1781
      6 S1         -0.0407    5.5763    0.4116 S.o2      1 <0>         2.6889
      7 O1         -1.2344    5.8912    1.1153 O.2       1 <0>        -0.9514
      8 O2          1.2468    5.9252    0.9012 O.2       1 <0>        -0.9516
      9 C5         -0.0364    3.8291    0.1838 C.ar      1 <0>        -0.6562
     10 C6          1.1589    3.1605   -0.0086 C.ar      1 <0>        -0.0341
     11 C7          1.1665    1.7897   -0.1881 C.ar      1 <0>        -0.1171
     12 C8         -0.0206    1.0834   -0.1760 C.ar      1 <0>        -0.0653
     13 C9         -1.2227    1.7523    0.0121 C.ar      1 <0>         0.1291
     14 C10        -1.2265    3.1288    0.1979 C.ar      1 <0>        -0.0480
     15 N2         -2.4274    1.0406    0.0192 N.am      1 <0>        -0.6755
     16 C11        -2.4651   -0.2157    0.5058 C.2       1 <0>         0.5139
     17 O3         -1.4790   -0.6949    1.0246 O.2       1 <0>        -0.5054
     18 C12        -3.7324   -1.0250    0.4054 C.3       1 <0>        -0.1001
     19 C13        -3.5108   -2.3834    1.0190 C.ar      1 <0>        -0.0745
     20 C14        -3.0606   -3.4304    0.2362 C.ar      1 <0>        -0.0715
     21 C15        -2.8536   -4.6753    0.7998 C.ar      1 <0>        -0.1168
     22 C16        -3.1051   -4.8759    2.1445 C.ar      1 <0>        -0.0666
     23 C17        -3.5598   -3.8304    2.9259 C.ar      1 <0>        -0.1797
     24 C18        -3.7631   -2.5842    2.3630 C.ar      1 <0>        -0.0548
     25 C19        -3.8344   -4.0492    4.3915 C.3       1 <0>         0.5081
     26 F1         -5.1645   -4.4476    4.5623 F         1 <0>        -0.1759
     27 F2         -2.9827   -5.0447    4.8820 F         1 <0>        -0.1757
     28 F3         -3.6109   -2.8582    5.0906 F         1 <0>        -0.1759
     29 H1         -1.8949    8.1611   -0.2630 H         1 <0>         0.0642
     30 H2         -1.1441    8.6710   -1.7942 H         1 <0>         0.0606
     31 H3         -2.8653    8.2193   -1.7541 H         1 <0>         0.0700
     32 H4         -1.4893    6.3970   -2.7208 H         1 <0>         0.0814
     33 H5         -2.2401    5.8871   -1.1896 H         1 <0>         0.0799
     34 H6          0.8544    7.5007   -2.4307 H         1 <0>         0.0868
     35 H7          1.8628    6.7329   -1.1809 H         1 <0>         0.0947
     36 H8          1.5046    4.5240   -2.2490 H         1 <0>         0.0566
     37 H9          0.4962    5.2918   -3.4987 H         1 <0>         0.0610
     38 H10         2.2308    5.6770   -3.3941 H         1 <0>         0.0716
     39 H11         2.0883    3.7105   -0.0188 H         1 <0>         0.1421
     40 H12         2.1015    1.2705   -0.3385 H         1 <0>         0.1385
     41 H13        -0.0140    0.0127   -0.3170 H         1 <0>         0.1427
     42 H14        -2.1595    3.6514    0.3488 H         1 <0>         0.1426
     43 H15        -3.2355    1.4514   -0.3262 H         1 <0>         0.4150
     44 H16        -4.5339   -0.5124    0.9373 H         1 <0>         0.1131
     45 H17        -4.0077   -1.1403   -0.6429 H         1 <0>         0.1150
     46 H18        -2.8677   -3.2747   -0.8149 H         1 <0>         0.1316
     47 H19        -2.4987   -5.4923    0.1891 H         1 <0>         0.1378
     48 H20        -2.9466   -5.8495    2.5841 H         1 <0>         0.1376
     49 H21        -4.1187   -1.7673    2.9735 H         1 <0>         0.1346
@<TRIPOS>BOND
     1    1    2 1
     2    1   29 1
     3    1   30 1
     4    1   31 1
     5    2    3 1
     6    2   32 1
     7    2   33 1
     8    3    4 1
     9    3    6 1
    10    4    5 1
    11    4   34 1
    12    4   35 1
    13    5   36 1
    14    5   37 1
    15    5   38 1
    16    6    7 2
    17    6    8 2
    18    6    9 1
    19    9   14 ar
    20    9   10 ar
    21   10   11 ar
    22   10   39 1
    23   11   12 ar
    24   11   40 1
    25   12   13 ar
    26   12   41 1
    27   13   14 ar
    28   13   15 1
    29   14   42 1
    30   15   16 am
    31   15   43 1
    32   16   17 2
    33   16   18 1
    34   18   19 1
    35   18   44 1
    36   18   45 1
    37   19   24 ar
    38   19   20 ar
    39   20   21 ar
    40   20   46 1
    41   21   22 ar
    42   21   47 1
    43   22   23 ar
    44   22   48 1
    45   23   24 ar
    46   23   25 1
    47   24   49 1
    48   25   26 1
    49   25   27 1
    50   25   28 1
@<TRIPOS>MOLECULE
ZINC14352852
   41    42     0     0     0
SMALL
USER_CHARGES
2-(allyl-(2-thienylsulfonyl)amino)-N-[4-(trifluoromethyl)phenyl]acetamide
@<TRIPOS>ATOM
      1 C1          5.3260   -7.1509    1.5584 C.2       1 <0>        -0.1538
      2 C2          4.3337   -6.3184    1.3620 C.2       1 <0>        -0.1941
      3 C3          4.6057   -4.9323    0.8370 C.3       1 <0>         0.1550
      4 N1          3.8093   -4.7027   -0.3710 N.pl3     1 <0>        -0.9712
      5 C4          2.4252   -4.2361   -0.2581 C.3       1 <0>         0.0956
      6 C5          2.4096   -2.7341   -0.1369 C.2       1 <0>         0.4874
      7 O1          3.4521   -2.1143   -0.1440 O.2       1 <0>        -0.4932
      8 N2          1.2373   -2.0795   -0.0204 N.am      1 <0>        -0.6732
      9 C6          1.2156   -0.6805   -0.0053 C.ar      1 <0>         0.1799
     10 C7          0.1611    0.0055   -0.5935 C.ar      1 <0>        -0.1457
     11 C8          0.1424    1.3864   -0.5765 C.ar      1 <0>        -0.0496
     12 C9          1.1723    2.0858    0.0255 C.ar      1 <0>        -0.1994
     13 C10         2.2237    1.4057    0.6121 C.ar      1 <0>        -0.0509
     14 C11         2.2483    0.0249    0.5984 C.ar      1 <0>        -0.1225
     15 C12         1.1487    3.5926    0.0422 C.3       1 <0>         0.5093
     16 F1          0.4876    4.0359    1.1927 F         1 <0>        -0.1764
     17 F2          2.4602    4.0795    0.0411 F         1 <0>        -0.1772
     18 F3          0.4764    4.0611   -1.0917 F         1 <0>        -0.1772
     19 S1          4.4737   -4.9704   -1.8641 S.o2      1 <0>         2.7246
     20 O2          5.5321   -5.8999   -1.6769 O.2       1 <0>        -0.9358
     21 O3          3.3917   -5.2166   -2.7518 O.2       1 <0>        -0.9486
     22 C13         5.2165   -3.4590   -2.3824 C.2       1 <0>        -0.7569
     23 C14         6.4795   -3.0133   -2.1744 C.2       1 <0>        -0.0019
     24 C15         6.8481   -1.7820   -2.6829 C.2       1 <0>        -0.1901
     25 C16         5.9325   -1.0519   -3.3655 C.2       1 <0>        -0.1310
     26 S2          4.4985   -2.1140   -3.3111 S.3       1 <0>         0.1695
     27 H1          6.3389   -6.8438    1.3440 H         1 <0>         0.1025
     28 H2          5.1310   -8.1443    1.9347 H         1 <0>         0.1030
     29 H3          3.3207   -6.6255    1.5764 H         1 <0>         0.1143
     30 H4          5.6648   -4.8357    0.5977 H         1 <0>         0.0898
     31 H5          4.3360   -4.1972    1.5952 H         1 <0>         0.0916
     32 H6          1.9642   -4.6768    0.6259 H         1 <0>         0.1260
     33 H7          1.8676   -4.5348   -1.1458 H         1 <0>         0.1309
     34 H8          0.4085   -2.5782    0.0528 H         1 <0>         0.4173
     35 H9         -0.6437   -0.5403   -1.0635 H         1 <0>         0.1402
     36 H10        -0.6751    1.9205   -1.0377 H         1 <0>         0.1409
     37 H11         3.0267    1.9549    1.0811 H         1 <0>         0.1386
     38 H12         3.0696   -0.5057    1.0570 H         1 <0>         0.1508
     39 H13         7.1882   -3.6126   -1.6220 H         1 <0>         0.1437
     40 H14         7.8494   -1.4052   -2.5347 H         1 <0>         0.1437
     41 H15         6.0419   -0.0798   -3.8231 H         1 <0>         0.1943
@<TRIPOS>BOND
     1    1    2 2
     2    1   27 1
     3    1   28 1
     4    2    3 1
     5    2   29 1
     6    3    4 1
     7    3   30 1
     8    3   31 1
     9    4    5 1
    10    4   19 1
    11    5    6 1
    12    5   32 1
    13    5   33 1
    14    6    7 2
    15    6    8 am
    16    8    9 1
    17    8   34 1
    18    9   14 ar
    19    9   10 ar
    20   10   11 ar
    21   10   35 1
    22   11   12 ar
    23   11   36 1
    24   12   13 ar
    25   12   15 1
    26   13   14 ar
    27   13   37 1
    28   14   38 1
    29   15   16 1
    30   15   17 1
    31   15   18 1
    32   19   20 2
    33   19   21 2
    34   19   22 1
    35   22   26 1
    36   22   23 2
    37   23   24 1
    38   23   39 1
    39   24   25 2
    40   24   40 1
    41   25   26 1
    42   25   41 1
@<TRIPOS>MOLECULE
ZINC34713202
   46    48     0     0     0
SMALL
USER_CHARGES

@<TRIPOS>ATOM
      1 C1         -0.0173    1.4248    0.0099 C.3       1 <0>         0.0305
      2 O1          0.0021   -0.0041    0.0020 O.3       1 <0>        -0.3890
      3 C2         -1.2953   -0.6030    0.0112 C.3       1 <0>         0.0474
      4 C3         -1.1538   -2.1264    0.0017 C.3       1 <0>         0.1204
      5 N1         -0.5155   -2.5654    1.2451 N.am      1 <0>        -0.7079
      6 C4         -0.2873   -3.8763    1.4591 C.2       1 <0>         0.5911
      7 O2         -0.6112   -4.6950    0.6198 O.2       1 <0>        -0.5375
      8 C5          0.3545   -4.3176    2.7092 C.2       1 <0>        -0.0125
      9 C6          0.5955   -5.6465    2.9340 C.2       1 <0>        -0.2066
     10 S1          1.3207   -5.6333    4.4528 S.3       1 <0>         0.1985
     11 C7          1.2806   -3.8727    4.7387 C.2       1 <0>         0.1049
     12 N2          0.7120   -3.4324    3.6306 N.2       1 <0>        -0.4564
     13 C8          1.7622   -3.1068    5.9074 C.ar      1 <0>        -0.0835
     14 C9          1.6297   -1.7175    5.9368 C.ar      1 <0>        -0.0041
     15 C10         2.0795   -1.0067    7.0283 C.ar      1 <0>        -0.1578
     16 C11         2.6651   -1.6698    8.0996 C.ar      1 <0>         0.1807
     17 C12         2.8002   -3.0509    8.0762 C.ar      1 <0>        -0.2451
     18 C13         2.3466   -3.7721    6.9891 C.ar      1 <0>         0.1646
     19 F1          2.4729   -5.1170    6.9686 F         1 <0>        -0.1216
     20 O3          3.1072   -0.9643    9.1729 O.3       1 <0>        -0.2970
     21 C14         3.6991   -1.7086   10.2394 C.3       1 <0>         0.0980
     22 C15         4.1263   -0.7650   11.3340 C.ar      1 <0>        -0.1131
     23 C16         5.3943   -0.2146   11.3155 C.ar      1 <0>        -0.0629
     24 C17         5.7870    0.6513   12.3185 C.ar      1 <0>        -0.1568
     25 C18         4.9099    0.9675   13.3421 C.ar      1 <0>         0.1132
     26 C19         3.6401    0.4157   13.3595 C.ar      1 <0>        -0.1569
     27 C20         3.2478   -0.4458   12.3526 C.ar      1 <0>        -0.0631
     28 F2          5.2929    1.8135   14.3233 F         1 <0>        -0.1353
     29 H1          1.0053    1.8021    0.0021 H         1 <0>         0.0881
     30 H2         -0.5445    1.7859   -0.8732 H         1 <0>         0.0431
     31 H3         -0.5275    1.7763    0.9067 H         1 <0>         0.0430
     32 H4         -1.8320   -0.2936    0.9080 H         1 <0>         0.0584
     33 H5         -1.8490   -0.2840   -0.8718 H         1 <0>         0.0695
     34 H6         -2.1404   -2.5824   -0.0809 H         1 <0>         0.0861
     35 H7         -0.5414   -2.4291   -0.8477 H         1 <0>         0.0795
     36 H8         -0.2572   -1.9125    1.9144 H         1 <0>         0.4127
     37 H9          0.3757   -6.4906    2.2971 H         1 <0>         0.2100
     38 H10         1.1755   -1.2001    5.1047 H         1 <0>         0.1536
     39 H11         1.9769    0.0682    7.0509 H         1 <0>         0.1485
     40 H12         3.2562   -3.5626    8.9108 H         1 <0>         0.1507
     41 H13         2.9720   -2.4181   10.6346 H         1 <0>         0.0800
     42 H14         4.5687   -2.2496    9.8662 H         1 <0>         0.0801
     43 H15         6.0784   -0.4617   10.5172 H         1 <0>         0.1368
     44 H16         6.7778    1.0808   12.3041 H         1 <0>         0.1405
     45 H17         2.9552    0.6614   14.1576 H         1 <0>         0.1405
     46 H18         2.2559   -0.8729   12.3636 H         1 <0>         0.1367
@<TRIPOS>BOND
     1    1    2 1
     2    1   29 1
     3    1   30 1
     4    1   31 1
     5    2    3 1
     6    3    4 1
     7    3   32 1
     8    3   33 1
     9    4    5 1
    10    4   34 1
    11    4   35 1
    12    5    6 am
    13    5   36 1
    14    6    7 2
    15    6    8 1
    16    8   12 1
    17    8    9 2
    18    9   10 1
    19    9   37 1
    20   10   11 1
    21   11   12 2
    22   11   13 1
    23   13   18 ar
    24   13   14 ar
    25   14   15 ar
    26   14   38 1
    27   15   16 ar
    28   15   39 1
    29   16   17 ar
    30   16   20 1
    31   17   18 ar
    32   17   40 1
    33   18   19 1
    34   20   21 1
    35   21   22 1
    36   21   41 1
    37   21   42 1
    38   22   27 ar
    39   22   23 ar
    40   23   24 ar
    41   23   43 1
    42   24   25 ar
    43   24   44 1
    44   25   26 ar
    45   25   28 1
    46   26   27 ar
    47   26   45 1
    48   27   46 1
@<TRIPOS>MOLECULE
ZINC40117674
   49    50     0     0     0
SMALL
USER_CHARGES

@<TRIPOS>ATOM
      1 C1         -0.0184    1.5028    0.0103 C.3       1 <0>        -0.1225
      2 C2          0.0021   -0.0041    0.0020 C.ar      1 <0>        -0.0745
      3 C3          0.0058   -0.6888   -1.1988 C.ar      1 <0>        -0.1065
      4 C4          0.0246   -2.0709   -1.2066 C.ar      1 <0>        -0.1027
      5 C5          0.0396   -2.7693   -0.0135 C.ar      1 <0>        -0.0787
      6 C6          0.0359   -2.0859    1.1877 C.ar      1 <0>        -0.0964
      7 C7          0.0229   -0.7022    1.1960 C.ar      1 <0>        -0.0357
      8 Cl1         0.0249    0.1571    2.7045 Cl        1 <0>        -0.0651
      9 C8          0.0596   -4.2761   -0.0228 C.3       1 <0>         0.0163
     10 C9          1.4869   -4.7596   -0.0328 C.2       1 <0>        -0.2065
     11 C10         2.3093   -5.0486    1.0055 C.2       1 <0>         0.0683
     12 N1          3.5286   -5.4587    0.7091 N.2       1 <0>        -0.5171
     13 C11         3.9204   -5.5788   -0.5409 C.2       1 <0>         0.2660
     14 S1          2.5585   -5.1170   -1.4154 S.3       1 <0>         0.1193
     15 N2          5.1570   -5.9921   -1.0226 N.am      1 <0>        -0.6235
     16 C12         6.1363   -6.3323   -0.1613 C.2       1 <0>         0.5164
     17 O1          5.9385   -6.2777    1.0340 O.2       1 <0>        -0.4626
     18 C13         7.4770   -6.7804   -0.6835 C.3       1 <0>        -0.1277
     19 C14         8.4000   -7.1047    0.4928 C.3       1 <0>        -0.6051
     20 S2         10.0138   -7.6442   -0.1358 S.o2      1 <0>         2.4142
     21 O2          9.8381   -8.8708   -0.8313 O.2       1 <0>        -0.9291
     22 O3         10.6232   -6.5501   -0.8074 O.2       1 <0>        -0.9332
     23 C15        10.9459   -7.9751    1.3848 C.3       1 <0>        -0.6038
     24 C16        12.3559   -8.4484    1.0259 C.3       1 <0>        -0.0835
     25 C17        13.1812   -8.6080    2.3043 C.3       1 <0>        -0.1423
     26 C18        12.2734   -9.7932    0.3009 C.3       1 <0>        -0.1842
     27 H1          1.0042    1.8801    0.0026 H         1 <0>         0.0764
     28 H2         -0.5455    1.8639   -0.8728 H         1 <0>         0.0723
     29 H3         -0.5286    1.8543    0.9071 H         1 <0>         0.0745
     30 H4         -0.0063   -0.1438   -2.1311 H         1 <0>         0.1333
     31 H5          0.0271   -2.6054   -2.1450 H         1 <0>         0.1288
     32 H6          0.0474   -2.6316    2.1196 H         1 <0>         0.1343
     33 H7         -0.4450   -4.6517    0.8674 H         1 <0>         0.1036
     34 H8         -0.4538   -4.6408   -0.9125 H         1 <0>         0.0944
     35 H9          1.9816   -4.9475    2.0296 H         1 <0>         0.1743
     36 H10         5.3152   -6.0358   -1.9786 H         1 <0>         0.4284
     37 H11         7.3479   -7.6699   -1.3001 H         1 <0>         0.1193
     38 H12         7.9182   -5.9839   -1.2827 H         1 <0>         0.1186
     39 H13         8.5291   -6.2152    1.1093 H         1 <0>         0.1423
     40 H14         7.9588   -7.9012    1.0920 H         1 <0>         0.1430
     41 H15        11.0089   -7.0630    1.9782 H         1 <0>         0.1352
     42 H16        10.4385   -8.7490    1.9608 H         1 <0>         0.1360
     43 H17        12.8313   -7.7138    0.3759 H         1 <0>         0.0869
     44 H18        12.7058   -9.3426    2.9543 H         1 <0>         0.0599
     45 H19        14.1857   -8.9452    2.0486 H         1 <0>         0.0643
     46 H20        13.2400   -7.6499    2.8208 H         1 <0>         0.0592
     47 H21        13.2779  -10.1304    0.0452 H         1 <0>         0.0685
     48 H22        11.7980  -10.5278    0.9509 H         1 <0>         0.0653
     49 H23        11.6855   -9.6795   -0.6099 H         1 <0>         0.0811
@<TRIPOS>BOND
     1    1    2 1
     2    1   27 1
     3    1   28 1
     4    1   29 1
     5    2    7 ar
     6    2    3 ar
     7    3    4 ar
     8    3   30 1
     9    4    5 ar
    10    4   31 1
    11    5    6 ar
    12    5    9 1
    13    6    7 ar
    14    6   32 1
    15    7    8 1
    16    9   10 1
    17    9   33 1
    18    9   34 1
    19   10   14 1
    20   10   11 2
    21   11   12 1
    22   11   35 1
    23   12   13 2
    24   13   14 1
    25   13   15 1
    26   15   16 am
    27   15   36 1
    28   16   17 2
    29   16   18 1
    30   18   19 1
    31   18   37 1
    32   18   38 1
    33   19   20 1
    34   19   39 1
    35   19   40 1
    36   20   21 2
    37   20   22 2
    38   20   23 1
    39   23   24 1
    40   23   41 1
    41   23   42 1
    42   24   25 1
    43   24   26 1
    44   24   43 1
    45   25   44 1
    46   25   45 1
    47   25   46 1
    48   26   47 1
    49   26   48 1
    50   26   49 1
@<TRIPOS>MOLECULE
ZINC61732883
   55    57     0     0     0
SMALL
USER_CHARGES

@<TRIPOS>ATOM
      1 C1         -0.0184    1.5028    0.0103 C.3       1 <0>        -0.1172
      2 C2          0.0021   -0.0041    0.0020 C.ar      1 <0>        -0.0815
      3 C3          0.0057   -0.6887   -1.1989 C.ar      1 <0>        -0.1219
      4 C4          0.0245   -2.0709   -1.2065 C.ar      1 <0>        -0.1042
      5 C5          0.0400   -2.7685   -0.0132 C.ar      1 <0>        -0.0895
      6 C6          0.0373   -2.0839    1.1877 C.ar      1 <0>        -0.0834
      7 C7          0.0229   -0.7016    1.1953 C.ar      1 <0>        -0.1234
      8 C8          0.0595   -4.2753   -0.0215 C.3       1 <0>         0.1761
      9 C9         -1.3486   -4.7966    0.1073 C.ar      1 <0>        -0.1107
     10 C10        -1.9587   -4.8404    1.3470 C.ar      1 <0>        -0.0876
     11 C11        -3.2504   -5.3185    1.4652 C.ar      1 <0>        -0.1226
     12 C12        -3.9321   -5.7524    0.3436 C.ar      1 <0>        -0.1160
     13 C13        -3.3223   -5.7078   -0.8962 C.ar      1 <0>        -0.1219
     14 C14        -2.0322   -5.2256   -1.0150 C.ar      1 <0>        -0.1104
     15 O1          0.8444   -4.7476    1.0752 O.3       1 <0>        -0.3571
     16 C15         1.4921   -5.9977    0.8307 C.3       1 <0>         0.0370
     17 C16         2.2996   -6.4039    2.0652 C.3       1 <0>         0.1298
     18 C17         3.0916   -7.6769    1.7603 C.3       1 <0>        -0.1404
     19 S1          4.0489   -8.1585    3.2240 S.3       1 <0>         0.0260
     20 C18         4.8937   -9.6200    2.7189 C.2       1 <0>         0.1508
     21 N1          4.8244  -10.1938    1.5401 N.2       1 <0>        -0.2973
     22 N2          5.5693  -11.2409    1.5199 N.2       1 <0>        -0.2878
     23 C19         6.1534  -11.3968    2.6741 C.2       1 <0>         0.1644
     24 N3          5.7487  -10.3667    3.4775 N.pl3     1 <0>        -0.4573
     25 C20         6.1472  -10.1181    4.8652 C.3       1 <0>         0.1273
     26 C21         5.7443  -11.3119    5.7332 C.3       1 <0>        -0.1641
     27 C22         7.6635   -9.9263    4.9339 C.3       1 <0>        -0.1641
     28 O2          1.4104   -6.6461    3.1573 O.3       1 <0>        -0.5410
     29 H1          1.0042    1.8801    0.0026 H         1 <0>         0.0713
     30 H2         -0.5455    1.8639   -0.8728 H         1 <0>         0.0665
     31 H3         -0.5286    1.8543    0.9071 H         1 <0>         0.0669
     32 H4         -0.0064   -0.1436   -2.1312 H         1 <0>         0.1230
     33 H5          0.0266   -2.6057   -2.1448 H         1 <0>         0.1207
     34 H6          0.0491   -2.6289    2.1200 H         1 <0>         0.1278
     35 H7          0.0245   -0.1667    2.1335 H         1 <0>         0.1227
     36 H8          0.4932   -4.6279   -0.9572 H         1 <0>         0.0767
     37 H9         -1.4261   -4.5013    2.2232 H         1 <0>         0.1273
     38 H10        -3.7268   -5.3534    2.4338 H         1 <0>         0.1227
     39 H11        -4.9409   -6.1266    0.4360 H         1 <0>         0.1215
     40 H12        -3.8548   -6.0471   -1.7724 H         1 <0>         0.1225
     41 H13        -1.5571   -5.1873   -1.9841 H         1 <0>         0.1198
     42 H14         0.7424   -6.7602    0.6198 H         1 <0>         0.0596
     43 H15         2.1607   -5.8992   -0.0246 H         1 <0>         0.0646
     44 H16         2.9887   -5.6015    2.3287 H         1 <0>         0.1191
     45 H17         2.4025   -8.4792    1.4967 H         1 <0>         0.1013
     46 H18         3.7698   -7.4921    0.9272 H         1 <0>         0.1084
     47 H19         6.8346  -12.1900    2.9448 H         1 <0>         0.2201
     48 H20         5.6503   -9.2192    5.2304 H         1 <0>         0.1078
     49 H21         6.2411  -12.2107    5.3680 H         1 <0>         0.0679
     50 H22         6.0407  -11.1269    6.7657 H         1 <0>         0.0852
     51 H23         4.6640  -11.4485    5.6843 H         1 <0>         0.0671
     52 H24         7.9506   -9.0758    4.3155 H         1 <0>         0.0669
     53 H25         7.9600   -9.7413    5.9663 H         1 <0>         0.0852
     54 H26         8.1604  -10.8251    4.5687 H         1 <0>         0.0680
     55 H27         0.7677   -7.3495    2.9926 H         1 <0>         0.3774
@<TRIPOS>BOND
     1    1    2 1
     2    1   29 1
     3    1   30 1
     4    1   31 1
     5    2    7 ar
     6    2    3 ar
     7    3    4 ar
     8    3   32 1
     9    4    5 ar
    10    4   33 1
    11    5    6 ar
    12    5    8 1
    13    6    7 ar
    14    6   34 1
    15    7   35 1
    16    8    9 1
    17    8   15 1
    18    8   36 1
    19    9   14 ar
    20    9   10 ar
    21   10   11 ar
    22   10   37 1
    23   11   12 ar
    24   11   38 1
    25   12   13 ar
    26   12   39 1
    27   13   14 ar
    28   13   40 1
    29   14   41 1
    30   15   16 1
    31   16   17 1
    32   16   42 1
    33   16   43 1
    34   17   18 1
    35   17   28 1
    36   17   44 1
    37   18   19 1
    38   18   45 1
    39   18   46 1
    40   19   20 1
    41   20   24 1
    42   20   21 2
    43   21   22 1
    44   22   23 2
    45   23   24 1
    46   23   47 1
    47   24   25 1
    48   25   26 1
    49   25   27 1
    50   25   48 1
    51   26   49 1
    52   26   50 1
    53   26   51 1
    54   27   52 1
    55   27   53 1
    56   27   54 1
    57   28   55 1
@<TRIPOS>MOLECULE
ZINC01987168
   52    54     0     0     0
SMALL
USER_CHARGES
2-ethoxyethyl 2-(methylBLAHyl)sulfanylbutanoate
@<TRIPOS>ATOM
      1 C1          1.2814    2.2915   -0.0415 C.3       1 <0>        -0.1509
      2 C2         -0.1552    1.7656   -0.0203 C.3       1 <0>        -0.1059
      3 C3         -0.8286    2.1744    1.2912 C.3       1 <0>        -0.1016
      4 H1         -0.2202    1.8404    2.1317 H         1 <0>         0.1367
      5 C4         -0.9692    3.6741    1.3376 C.2       1 <0>         0.4860
      6 O1         -2.0279    4.1903    1.0678 O.2       1 <0>        -0.4940
      7 O2          0.0816    4.4365    1.6785 O.3       1 <0>        -0.3353
      8 C5         -0.1265    5.8733    1.7021 C.3       1 <0>         0.0678
      9 C6          1.1732    6.5702    2.1097 C.3       1 <0>         0.0630
     10 O3          2.1671    6.3486    1.1071 O.3       1 <0>        -0.3835
     11 C7          3.4266    6.9608    1.3920 C.3       1 <0>         0.0570
     12 C8          4.4083    6.6592    0.2579 C.3       1 <0>        -0.1524
     13 S1         -2.4669    1.4114    1.3916 S.3       1 <0>         0.0601
     14 C9         -2.0065   -0.2666    1.6686 C.ar      1 <0>         0.1940
     15 C10        -3.0014   -1.2612    1.8860 C.ar      1 <0>        -0.1662
     16 C11        -4.4567   -1.1094    1.9217 C.2       1 <0>        -0.0908
     17 C12        -5.1824   -2.2233    2.1481 C.2       1 <0>        -0.1289
     18 S2         -3.9907   -3.5238    2.3256 S.3       1 <0>         0.1216
     19 C13        -2.5151   -2.5669    2.0952 C.ar      1 <0>         0.1294
     20 N1         -1.2228   -2.8314    2.0876 N.ar      1 <0>        -0.4830
     21 C14        -0.3469   -1.8670    1.8812 C.ar      1 <0>         0.3314
     22 N2         -0.7307   -0.6206    1.6719 N.ar      1 <0>        -0.5328
     23 C15        -6.6745   -2.3333    2.2315 C.3       1 <0>        -0.0384
     24 C16        -7.2564   -0.9214    2.3907 C.3       1 <0>        -0.0870
     25 H2         -7.0420   -0.5483    3.3921 H         1 <0>         0.0789
     26 C17        -6.6076   -0.0034    1.3505 C.3       1 <0>        -0.1146
     27 C18        -5.1421    0.2384    1.7133 C.3       1 <0>        -0.0670
     28 C19        -8.7700   -0.9623    2.1712 C.3       1 <0>        -0.1477
     29 H3          1.7933    1.9148   -0.9271 H         1 <0>         0.0616
     30 H4          1.2691    3.3812   -0.0650 H         1 <0>         0.0647
     31 H5          1.8054    1.9533    0.8524 H         1 <0>         0.0619
     32 H6         -0.7086    2.1866   -0.8596 H         1 <0>         0.0734
     33 H7         -0.1453    0.6786   -0.1003 H         1 <0>         0.0934
     34 H8         -0.4257    6.2135    0.7107 H         1 <0>         0.0829
     35 H9         -0.9094    6.1153    2.4209 H         1 <0>         0.0897
     36 H10         0.9944    7.6404    2.2137 H         1 <0>         0.0756
     37 H11         1.5197    6.1656    3.0606 H         1 <0>         0.0633
     38 H12         3.2945    8.0390    1.4812 H         1 <0>         0.0491
     39 H13         3.8198    6.5642    2.3280 H         1 <0>         0.0501
     40 H14         5.3689    7.1261    0.4752 H         1 <0>         0.0720
     41 H15         4.5403    5.5809    0.1687 H         1 <0>         0.0642
     42 H16         4.0150    7.0558   -0.6781 H         1 <0>         0.0629
     43 H17         0.7071   -2.1026    1.8786 H         1 <0>         0.2121
     44 H18        -7.0605   -2.7887    1.3195 H         1 <0>         0.0919
     45 H19        -6.9501   -2.9431    3.0919 H         1 <0>         0.0887
     46 H20        -6.6650   -0.4718    0.3680 H         1 <0>         0.0694
     47 H21        -7.1370    0.9492    1.3278 H         1 <0>         0.0765
     48 H22        -4.6496    0.7773    0.9039 H         1 <0>         0.0861
     49 H23        -5.0848    0.8228    2.6316 H         1 <0>         0.0869
     50 H24        -9.2258   -1.6267    2.9053 H         1 <0>         0.0589
     51 H25        -9.1808    0.0409    2.2847 H         1 <0>         0.0609
     52 H26        -8.9818   -1.3302    1.1673 H         1 <0>         0.0583
@<TRIPOS>BOND
     1    1    2 1
     2    1   29 1
     3    1   30 1
     4    1   31 1
     5    2    3 1
     6    2   32 1
     7    2   33 1
     8    3    4 1
     9    3    5 1
    10    3   13 1
    11    5    6 2
    12    5    7 1
    13    7    8 1
    14    8    9 1
    15    8   34 1
    16    8   35 1
    17    9   10 1
    18    9   36 1
    19    9   37 1
    20   10   11 1
    21   11   12 1
    22   11   38 1
    23   11   39 1
    24   12   40 1
    25   12   41 1
    26   12   42 1
    27   13   14 1
    28   14   22 ar
    29   14   15 ar
    30   15   19 ar
    31   15   16 1
    32   16   27 1
    33   16   17 2
    34   17   18 1
    35   17   23 1
    36   18   19 1
    37   19   20 ar
    38   20   21 ar
    39   21   22 ar
    40   21   43 1
    41   23   24 1
    42   23   44 1
    43   23   45 1
    44   24   25 1
    45   24   26 1
    46   24   28 1
    47   26   27 1
    48   26   46 1
    49   26   47 1
    50   27   48 1
    51   27   49 1
    52   28   50 1
    53   28   51 1
    54   28   52 1
@<TRIPOS>MOLECULE
ZINC16789302
   47    49     0     0     0
SMALL
USER_CHARGES
1-(4-chlorophenyl)-2-[[4-ethyl-5-[(4-methylphenoxy)methyl]-1,2,4-triazol-3-yl]sulfanyl]ethanone
@<TRIPOS>ATOM
      1 C1          2.9532    9.6072    1.4649 C.3       1 <0>        -0.1725
      2 C2          3.2505    9.2093    0.0178 C.3       1 <0>         0.0968
      3 N1          4.1395    8.0449    0.0044 N.pl3     1 <0>        -0.4477
      4 C3          5.5070    8.0501   -0.0076 C.2       1 <0>         0.1789
      5 N2          5.8996    6.8077   -0.0171 N.2       1 <0>        -0.2525
      6 N3          4.8815    6.0232   -0.0070 N.2       1 <0>        -0.2904
      7 C4          3.7747    6.7291    0.0011 C.2       1 <0>         0.1525
      8 S1          2.1296    6.0980    0.0133 S.3       1 <0>         0.0668
      9 C5          2.4745    4.3212    0.0012 C.3       1 <0>        -0.1589
     10 C6          1.1756    3.5573    0.0095 C.2       1 <0>         0.4183
     11 O1          0.1206    4.1551    0.0223 O.2       1 <0>        -0.4293
     12 C7          1.1873    2.0864    0.0019 C.ar      1 <0>        -0.1638
     13 C8         -0.0166    1.3739    0.0096 C.ar      1 <0>        -0.0420
     14 C9          0.0021   -0.0041    0.0020 C.ar      1 <0>        -0.1225
     15 C10         1.2094   -0.6838   -0.0132 C.ar      1 <0>        -0.0013
     16 C11         2.4058    0.0153   -0.0208 C.ar      1 <0>        -0.1216
     17 C12         2.4025    1.3934   -0.0129 C.ar      1 <0>        -0.0567
     18 Cl1         1.2233   -2.4198   -0.0220 Cl        1 <0>        -0.0550
     19 C13         6.3954    9.2674   -0.0094 C.3       1 <0>         0.1539
     20 O2          6.6880    9.6456    1.3372 O.3       1 <0>        -0.3089
     21 C14         7.4838   10.7330    1.5136 C.ar      1 <0>         0.1225
     22 C15         7.9777   11.4185    0.4132 C.ar      1 <0>        -0.2041
     23 C16         8.7814   12.5272    0.5953 C.ar      1 <0>        -0.0794
     24 C17         9.1037   12.9466    1.8727 C.ar      1 <0>        -0.1201
     25 C18         8.6174   12.2618    2.9710 C.ar      1 <0>        -0.0797
     26 C19         7.8084   11.1561    2.7944 C.ar      1 <0>        -0.1426
     27 C20         9.9861   14.1525    2.0684 C.3       1 <0>        -0.1126
     28 H1          2.2918   10.4736    1.4749 H         1 <0>         0.0855
     29 H2          2.4706    8.7757    1.9785 H         1 <0>         0.0691
     30 H3          3.8853    9.8559    1.9722 H         1 <0>         0.0708
     31 H4          3.7331   10.0408   -0.4958 H         1 <0>         0.1013
     32 H5          2.3184    8.9606   -0.4895 H         1 <0>         0.1033
     33 H6          3.0084    4.0798    0.8116 H         1 <0>         0.1201
     34 H7          3.0399    4.0670   -0.8954 H         1 <0>         0.1364
     35 H8         -0.9584    1.9025    0.0169 H         1 <0>         0.1468
     36 H9         -0.9265   -0.5555    0.0083 H         1 <0>         0.1439
     37 H10         3.3431   -0.5211   -0.0327 H         1 <0>         0.1444
     38 H11         3.3357    1.9370   -0.0186 H         1 <0>         0.1456
     39 H12         7.3240    9.0387   -0.5325 H         1 <0>         0.1032
     40 H13         5.8863   10.0880   -0.5148 H         1 <0>         0.0835
     41 H14         7.7301   11.0884   -0.5849 H         1 <0>         0.1280
     42 H15         9.1619   13.0643   -0.2610 H         1 <0>         0.1265
     43 H16         8.8707   12.5913    3.9679 H         1 <0>         0.1307
     44 H17         7.4285   10.6217    3.6526 H         1 <0>         0.1311
     45 H18        11.0290   13.8374    2.1053 H         1 <0>         0.0698
     46 H19         9.8449   14.8446    1.2382 H         1 <0>         0.0656
     47 H20         9.7228   14.6476    3.0031 H         1 <0>         0.0663
@<TRIPOS>BOND
     1    1    2 1
     2    1   28 1
     3    1   29 1
     4    1   30 1
     5    2    3 1
     6    2   31 1
     7    2   32 1
     8    3    7 1
     9    3    4 1
    10    4    5 2
    11    4   19 1
    12    5    6 1
    13    6    7 2
    14    7    8 1
    15    8    9 1
    16    9   10 1
    17    9   33 1
    18    9   34 1
    19   10   11 2
    20   10   12 1
    21   12   17 ar
    22   12   13 ar
    23   13   14 ar
    24   13   35 1
    25   14   15 ar
    26   14   36 1
    27   15   16 ar
    28   15   18 1
    29   16   17 ar
    30   16   37 1
    31   17   38 1
    32   19   20 1
    33   19   39 1
    34   19   40 1
    35   20   21 1
    36   21   26 ar
    37   21   22 ar
    38   22   23 ar
    39   22   41 1
    40   23   24 ar
    41   23   42 1
    42   24   25 ar
    43   24   27 1
    44   25   26 ar
    45   25   43 1
    46   26   44 1
    47   27   45 1
    48   27   46 1
    49   27   47 1
@<TRIPOS>MOLECULE
ZINC07978391
   57    59     0     0     0
SMALL
USER_CHARGES
1-[3-[(4-allyl-5-cyclohexyl-1,2,4-triazol-3-yl)sulfanylmethyl]-4-ethoxy-phenyl]ethanone
@<TRIPOS>ATOM
      1 C1         -6.2461    5.9485    0.0647 C.3       1 <0>        -0.1560
      2 C2         -4.8270    5.3768    0.0544 C.3       1 <0>         0.0495
      3 O1         -4.8887    3.9491    0.0470 O.3       1 <0>        -0.3009
      4 C3         -3.7077    3.2816    0.0374 C.ar      1 <0>         0.1868
      5 C4         -2.5110    3.9904    0.0356 C.ar      1 <0>        -0.2228
      6 C5         -1.3178    3.3258    0.0322 C.ar      1 <0>        -0.0194
      7 C6         -1.2960    1.9257    0.0187 C.ar      1 <0>        -0.2141
      8 C7         -2.5006    1.2115    0.0205 C.ar      1 <0>         0.0008
      9 C8         -3.6977    1.8909    0.0298 C.ar      1 <0>        -0.1316
     10 C9         -4.9973    1.1279    0.0313 C.3       1 <0>        -0.0498
     11 S1         -5.5099    0.8127    1.7384 S.3       1 <0>         0.0038
     12 C10        -7.0100   -0.0656    1.4502 C.2       1 <0>         0.1544
     13 N1         -7.5293   -0.3611    0.2812 N.2       1 <0>        -0.2903
     14 N2         -8.6283   -1.0075    0.4426 N.2       1 <0>        -0.2789
     15 C11        -8.8742   -1.1618    1.7128 C.2       1 <0>         0.1947
     16 N3         -7.8492   -0.5726    2.4003 N.pl3     1 <0>        -0.4581
     17 C12        -7.6873   -0.4978    3.8544 C.3       1 <0>         0.1309
     18 C13        -8.3525    0.7521    4.3704 C.2       1 <0>        -0.1879
     19 C14        -9.2581    0.6705    5.3135 C.2       1 <0>        -0.1567
     20 C15       -10.0642   -1.8651    2.3132 C.3       1 <0>         0.0064
     21 C16       -10.0850   -3.3218    1.8458 C.3       1 <0>        -0.1100
     22 C17       -11.2931   -4.0358    2.4553 C.3       1 <0>        -0.1182
     23 C18       -12.5782   -3.3376    2.0059 C.3       1 <0>        -0.1237
     24 C19       -12.5575   -1.8809    2.4733 C.3       1 <0>        -0.1178
     25 C20       -11.3493   -1.1669    1.8638 C.3       1 <0>        -0.1075
     26 C21        -0.0144    1.2087    0.0087 C.2       1 <0>         0.3974
     27 O2          0.0021   -0.0041    0.0020 O.2       1 <0>        -0.4591
     28 C22         1.2803    1.9799    0.0005 C.3       1 <0>        -0.2039
     29 H1         -6.1986    7.0475    0.0704 H         1 <0>         0.0822
     30 H2         -6.7754    5.5997    0.9637 H         1 <0>         0.0684
     31 H3         -6.7845    5.6094   -0.8326 H         1 <0>         0.0688
     32 H4         -4.2977    5.7256   -0.8446 H         1 <0>         0.0680
     33 H5         -4.2885    5.7159    0.9516 H         1 <0>         0.0680
     34 H6         -2.5254    5.0703    0.0418 H         1 <0>         0.1391
     35 H7         -0.3909    3.8802    0.0357 H         1 <0>         0.1385
     36 H8         -2.4904    0.1315    0.0143 H         1 <0>         0.1450
     37 H9         -5.7705    1.7197   -0.4804 H         1 <0>         0.1134
     38 H10        -4.8612    0.1707   -0.4934 H         1 <0>         0.1085
     39 H11        -8.1513   -1.3793    4.3208 H         1 <0>         0.1044
     40 H12        -6.6161   -0.4725    4.1033 H         1 <0>         0.1078
     41 H13        -8.0777    1.7329    3.9552 H         1 <0>         0.1218
     42 H14        -9.7437    1.5828    5.6902 H         1 <0>         0.1120
     43 H15        -9.5329   -0.3103    5.7287 H         1 <0>         0.1046
     44 H16        -9.9805   -1.8252    3.4093 H         1 <0>         0.0833
     45 H17       -10.1553   -3.3538    0.7485 H         1 <0>         0.0787
     46 H18        -9.1610   -3.8238    2.1688 H         1 <0>         0.0621
     47 H19       -11.3080   -5.0831    2.1193 H         1 <0>         0.0682
     48 H20       -11.2228   -4.0038    3.5526 H         1 <0>         0.0623
     49 H21       -12.6484   -3.3696    0.9086 H         1 <0>         0.0662
     50 H22       -13.4469   -3.8509    2.4440 H         1 <0>         0.0644
     51 H23       -13.4815   -1.3790    2.1502 H         1 <0>         0.0678
     52 H24       -12.4873   -1.8488    3.5706 H         1 <0>         0.0624
     53 H25       -11.3343   -0.1196    2.1998 H         1 <0>         0.0622
     54 H26       -11.4195   -1.1989    0.7665 H         1 <0>         0.0777
     55 H27         2.1260    1.2765   -0.0064 H         1 <0>         0.0871
     56 H28         1.3363    2.6119    0.8991 H         1 <0>         0.0943
     57 H29         1.3236    2.6142   -0.8972 H         1 <0>         0.0947
@<TRIPOS>BOND
     1    1    2 1
     2    1   29 1
     3    1   30 1
     4    1   31 1
     5    2    3 1
     6    2   32 1
     7    2   33 1
     8    3    4 1
     9    4    9 ar
    10    4    5 ar
    11    5    6 ar
    12    5   34 1
    13    6    7 ar
    14    6   35 1
    15    7    8 ar
    16    7   26 1
    17    8    9 ar
    18    8   36 1
    19    9   10 1
    20   10   11 1
    21   10   37 1
    22   10   38 1
    23   11   12 1
    24   12   16 1
    25   12   13 2
    26   13   14 1
    27   14   15 2
    28   15   16 1
    29   15   20 1
    30   16   17 1
    31   17   18 1
    32   17   39 1
    33   17   40 1
    34   18   19 2
    35   18   41 1
    36   19   42 1
    37   19   43 1
    38   20   25 1
    39   20   21 1
    40   20   44 1
    41   21   22 1
    42   21   45 1
    43   21   46 1
    44   22   23 1
    45   22   47 1
    46   22   48 1
    47   23   24 1
    48   23   49 1
    49   23   50 1
    50   24   25 1
    51   24   51 1
    52   24   52 1
    53   25   53 1
    54   25   54 1
    55   26   27 2
    56   26   28 1
    57   28   55 1
    58   28   56 1
    59   28   57 1
@<TRIPOS>MOLECULE
ZINC39917119
   57    60     0     0     0
SMALL
USER_CHARGES

@<TRIPOS>ATOM
      1 C1         -0.0184    1.5028    0.0103 C.3       1 <0>        -0.1227
      2 C2          0.0021   -0.0041    0.0020 C.ar      1 <0>        -0.0335
      3 C3          0.0057   -0.6879   -1.1986 C.ar      1 <0>        -0.1433
      4 C4          0.0245   -2.0747   -1.2057 C.ar      1 <0>         0.1403
      5 C5          0.0397   -2.7727   -0.0067 C.ar      1 <0>        -0.2046
      6 C6          0.0360   -2.0855    1.1915 C.ar      1 <0>        -0.0640
      7 C7          0.0229   -0.7017    1.1965 C.ar      1 <0>        -0.0761
      8 Cl1         0.0254    0.1598    2.7036 Cl        1 <0>        -0.0657
      9 O1          0.0277   -2.7492   -2.3857 O.3       1 <0>        -0.3110
     10 C8          0.0474   -4.1764   -2.3172 C.3       1 <0>         0.0594
     11 C9          0.0481   -4.7550   -3.7336 C.3       1 <0>        -0.1158
     12 C10         0.0692   -6.2831   -3.6602 C.3       1 <0>        -0.1343
     13 C11         0.0699   -6.8618   -5.0766 C.3       1 <0>         0.1005
     14 N1          0.0901   -8.3249   -5.0063 N.pl3     1 <0>        -0.4875
     15 C12         1.2132   -9.1268   -4.9667 C.ar      1 <0>         0.0510
     16 C13         2.5792   -8.8787   -4.9773 C.ar      1 <0>        -0.1129
     17 C14         3.4651   -9.9336   -4.9258 C.ar      1 <0>        -0.0987
     18 C15         3.0006  -11.2398   -4.8640 C.ar      1 <0>        -0.1284
     19 C16         1.6602  -11.5029   -4.8532 C.ar      1 <0>        -0.0611
     20 C17         0.7434  -10.4494   -4.9037 C.ar      1 <0>         0.0454
     21 N2         -0.6130  -10.3879   -4.9080 N.2       1 <0>        -0.4711
     22 C18        -0.9943   -9.1451   -4.9621 C.2       1 <0>         0.2884
     23 C19        -2.4283   -8.6819   -4.9772 C.3       1 <0>         0.1329
     24 N3         -2.9009   -8.5971   -6.3655 N.3       1 <0>        -0.5279
     25 C20        -2.1910   -7.5399   -7.1001 C.3       1 <0>         0.0090
     26 C21        -2.6704   -7.5261   -8.5540 C.3       1 <0>         0.0647
     27 O2         -4.0889   -7.3455   -8.5812 O.3       1 <0>        -0.3827
     28 C22        -4.8118   -8.3579   -7.8758 C.3       1 <0>         0.0627
     29 C23        -4.3541   -8.3801   -6.4150 C.3       1 <0>         0.0192
     30 H1          1.0042    1.8801    0.0026 H         1 <0>         0.0805
     31 H2         -0.5455    1.8639   -0.8728 H         1 <0>         0.0746
     32 H3         -0.5286    1.8543    0.9071 H         1 <0>         0.0776
     33 H4         -0.0064   -0.1428   -2.1309 H         1 <0>         0.1405
     34 H5          0.0540   -3.8526   -0.0102 H         1 <0>         0.1355
     35 H6          0.0477   -2.6285    2.1250 H         1 <0>         0.1369
     36 H7          0.9446   -4.5025   -1.7911 H         1 <0>         0.0661
     37 H8         -0.8352   -4.5267   -1.7820 H         1 <0>         0.0654
     38 H9         -0.8491   -4.4289   -4.2597 H         1 <0>         0.0795
     39 H10         0.9307   -4.4047   -4.2688 H         1 <0>         0.0812
     40 H11         0.9664   -6.6092   -3.1341 H         1 <0>         0.0772
     41 H12        -0.8134   -6.6334   -3.1250 H         1 <0>         0.0739
     42 H13        -0.8273   -6.5357   -5.6027 H         1 <0>         0.0982
     43 H14         0.9525   -6.5115   -5.6117 H         1 <0>         0.0956
     44 H15         2.9460   -7.8641   -5.0260 H         1 <0>         0.1203
     45 H16         4.5280   -9.7422   -4.9339 H         1 <0>         0.1303
     46 H17         3.7060  -12.0567   -4.8245 H         1 <0>         0.1301
     47 H18         1.3095  -12.5233   -4.8056 H         1 <0>         0.1295
     48 H19        -3.0452   -9.3916   -4.4260 H         1 <0>         0.1148
     49 H20        -2.4978   -7.6999   -4.5091 H         1 <0>         0.0575
     50 H21        -2.3985   -6.5742   -6.6392 H         1 <0>         0.0475
     51 H22        -1.1188   -7.7344   -7.0722 H         1 <0>         0.0843
     52 H23        -2.1889   -6.7071   -9.0882 H         1 <0>         0.1002
     53 H24        -2.4148   -8.4725   -9.0305 H         1 <0>         0.0624
     54 H25        -5.8790   -8.1404   -7.9195 H         1 <0>         0.1029
     55 H26        -4.6185   -9.3285   -8.3326 H         1 <0>         0.0633
     56 H27        -4.8609   -9.1879   -5.8870 H         1 <0>         0.0941
     57 H28        -4.5962   -7.4279   -5.9431 H         1 <0>         0.0480
@<TRIPOS>BOND
     1    1    2 1
     2    1   30 1
     3    1   31 1
     4    1   32 1
     5    2    7 ar
     6    2    3 ar
     7    3    4 ar
     8    3   33 1
     9    4    5 ar
    10    4    9 1
    11    5    6 ar
    12    5   34 1
    13    6    7 ar
    14    6   35 1
    15    7    8 1
    16    9   10 1
    17   10   11 1
    18   10   36 1
    19   10   37 1
    20   11   12 1
    21   11   38 1
    22   11   39 1
    23   12   13 1
    24   12   40 1
    25   12   41 1
    26   13   14 1
    27   13   42 1
    28   13   43 1
    29   14   22 1
    30   14   15 1
    31   15   20 ar
    32   15   16 ar
    33   16   17 ar
    34   16   44 1
    35   17   18 ar
    36   17   45 1
    37   18   19 ar
    38   18   46 1
    39   19   20 ar
    40   19   47 1
    41   20   21 1
    42   21   22 2
    43   22   23 1
    44   23   24 1
    45   23   48 1
    46   23   49 1
    47   24   29 1
    48   24   25 1
    49   25   26 1
    50   25   50 1
    51   25   51 1
    52   26   27 1
    53   26   52 1
    54   26   53 1
    55   27   28 1
    56   28   29 1
    57   28   54 1
    58   28   55 1
    59   29   56 1
    60   29   57 1
@<TRIPOS>MOLECULE
ZINC59265883
   41    42     0     0     0
SMALL
USER_CHARGES

@<TRIPOS>ATOM
      1 C1          0.9524    1.1350    0.9293 C.3       1 <0>        -0.1514
      2 C2          1.0872   -0.3874    0.8581 C.3       1 <0>        -0.1241
      3 C3          1.3053   -0.8126   -0.5954 C.3       1 <0>         0.0638
      4 O1          1.4312   -2.2345   -0.6620 O.3       1 <0>        -0.3418
      5 C4          1.6284   -2.7726   -1.8758 C.2       1 <0>         0.4863
      6 O2          1.6919   -2.0600   -2.8495 O.2       1 <0>        -0.4894
      7 C5          1.7704   -4.2656   -2.0241 C.3       1 <0>        -0.1229
      8 S1          2.0245   -4.6781   -3.7722 S.3       1 <0>         0.0829
      9 C6          2.1705   -6.4340   -3.7789 C.2       1 <0>         0.1490
     10 N1          2.0985   -7.2263   -2.7327 N.2       1 <0>        -0.2878
     11 N2          2.2473   -8.4503   -3.0950 N.2       1 <0>        -0.2590
     12 C7          2.4233   -8.5148   -4.3943 C.2       1 <0>         0.2253
     13 N3          2.3736   -7.2259   -4.8730 N.pl3     1 <0>        -0.4480
     14 C8          2.5125   -6.7928   -6.2656 C.3       1 <0>         0.1252
     15 C9          3.9381   -6.3771   -6.5225 C.2       1 <0>        -0.1876
     16 C10         4.6021   -6.8988   -7.5240 C.2       1 <0>        -0.1555
     17 C11         2.6296   -9.7415   -5.1932 C.ar      1 <0>        -0.0033
     18 C12         3.4462   -9.7116   -6.3248 C.ar      1 <0>        -0.1102
     19 C13         3.6347  -10.8594   -7.0662 C.ar      1 <0>        -0.0873
     20 C14         3.0157  -12.0393   -6.6901 C.ar      1 <0>        -0.0772
     21 C15         2.2042  -12.0752   -5.5689 C.ar      1 <0>        -0.0865
     22 C16         2.0132  -10.9355   -4.8156 C.ar      1 <0>        -0.0670
     23 Br1         3.2790  -13.6082   -7.7124 Br        1 <0>        -0.0388
     24 H1          1.8621    1.5986    0.5477 H         1 <0>         0.0590
     25 H2          0.1020    1.4530    0.3263 H         1 <0>         0.0591
     26 H3          0.7971    1.4379    1.9648 H         1 <0>         0.0673
     27 H4          1.9377   -0.7055    1.4611 H         1 <0>         0.0759
     28 H5          0.1775   -0.8510    1.2397 H         1 <0>         0.0760
     29 H6          0.4548   -0.4945   -1.1985 H         1 <0>         0.0723
     30 H7          2.2149   -0.3490   -0.9771 H         1 <0>         0.0723
     31 H8          2.6256   -4.6088   -1.4418 H         1 <0>         0.1408
     32 H9          0.8654   -4.7543   -1.6632 H         1 <0>         0.1409
     33 H10         2.2487   -7.6157   -6.9300 H         1 <0>         0.1097
     34 H11         1.8487   -5.9485   -6.4515 H         1 <0>         0.1135
     35 H12         4.4122   -5.6491   -5.8810 H         1 <0>         0.1258
     36 H13         4.1449   -7.6623   -8.1358 H         1 <0>         0.1062
     37 H14         5.6069   -6.5653   -7.7379 H         1 <0>         0.1153
     38 H15         3.9290   -8.7916   -6.6195 H         1 <0>         0.1411
     39 H16         4.2663  -10.8376   -7.9420 H         1 <0>         0.1413
     40 H17         1.7237  -12.9985   -5.2808 H         1 <0>         0.1437
     41 H18         1.3838  -10.9658   -3.9385 H         1 <0>         0.1451
@<TRIPOS>BOND
     1    1    2 1
     2    1   24 1
     3    1   25 1
     4    1   26 1
     5    2    3 1
     6    2   27 1
     7    2   28 1
     8    3    4 1
     9    3   29 1
    10    3   30 1
    11    4    5 1
    12    5    6 2
    13    5    7 1
    14    7    8 1
    15    7   31 1
    16    7   32 1
    17    8    9 1
    18    9   13 1
    19    9   10 2
    20   10   11 1
    21   11   12 2
    22   12   13 1
    23   12   17 1
    24   13   14 1
    25   14   15 1
    26   14   33 1
    27   14   34 1
    28   15   16 2
    29   15   35 1
    30   16   36 1
    31   16   37 1
    32   17   22 ar
    33   17   18 ar
    34   18   19 ar
    35   18   38 1
    36   19   20 ar
    37   19   39 1
    38   20   21 ar
    39   20   23 1
    40   21   22 ar
    41   21   40 1
    42   22   41 1
@<TRIPOS>MOLECULE
ZINC01432790
   47    49     0     0     0
SMALL
USER_CHARGES
5-[(3,4-diethoxyphenyl)methyl]-3-[4-(trifluoromethyl)phenyl]-1,2,4-oxadiazole
@<TRIPOS>ATOM
      1 C1         -3.6763    3.6065    4.5466 C.3       1 <0>        -0.1526
      2 C2         -2.4303    2.7516    4.7865 C.3       1 <0>         0.0523
      3 O1         -1.8691    2.3646    3.5306 O.3       1 <0>        -0.3032
      4 C3         -0.7482    1.5953    3.5661 C.ar      1 <0>         0.1131
      5 C4         -0.2011    1.2210    4.7829 C.ar      1 <0>        -0.1746
      6 C5          0.9381    0.4386    4.8171 C.ar      1 <0>        -0.0981
      7 C6          1.5342    0.0282    3.6392 C.ar      1 <0>        -0.1008
      8 C7          0.9900    0.3930    2.4218 C.ar      1 <0>        -0.1520
      9 C8         -0.1484    1.1819    2.3804 C.ar      1 <0>         0.1027
     10 O2         -0.6816    1.5467    1.1837 O.3       1 <0>        -0.3033
     11 C9         -0.0127    1.0858    0.0080 C.3       1 <0>         0.0527
     12 C10        -0.7527    1.5927   -1.2315 C.3       1 <0>        -0.1522
     13 C11         2.7762   -0.8242    3.6823 C.3       1 <0>         0.0184
     14 C12         2.3862   -2.2798    3.6978 C.2       1 <0>         0.1969
     15 N1          2.2092   -3.0490    2.6526 N.2       1 <0>        -0.4684
     16 C13         1.8718   -4.2615    3.1469 C.2       1 <0>         0.2046
     17 N2          1.8639   -4.1584    4.4504 N.2       1 <0>        -0.3666
     18 O3          2.1615   -3.0300    4.7811 O.3       1 <0>         0.0903
     19 C14         1.5672   -5.4810    2.3577 C.ar      1 <0>         0.0115
     20 C15         1.6092   -5.4415    0.9656 C.ar      1 <0>        -0.0767
     21 C16         1.3301   -6.5799    0.2367 C.ar      1 <0>        -0.0709
     22 C17         0.9985   -7.7556    0.8856 C.ar      1 <0>        -0.1663
     23 C18         0.9501   -7.7990    2.2672 C.ar      1 <0>        -0.0696
     24 C19         1.2325   -6.6679    3.0061 C.ar      1 <0>        -0.0854
     25 C20         0.6882   -8.9935    0.0842 C.3       1 <0>         0.5083
     26 F1         -0.6815   -9.0355   -0.1976 F         1 <0>        -0.1735
     27 F2          1.4102   -8.9667   -1.1138 F         1 <0>        -0.1742
     28 F3          1.0478  -10.1277    0.8201 F         1 <0>        -0.1744
     29 H1         -4.1044    3.9017    5.5046 H         1 <0>         0.0795
     30 H2         -3.4024    4.4971    3.9811 H         1 <0>         0.0673
     31 H3         -4.4097    3.0296    3.9832 H         1 <0>         0.0668
     32 H4         -2.7041    1.8609    5.3521 H         1 <0>         0.0620
     33 H5         -1.6968    3.3284    5.3499 H         1 <0>         0.0631
     34 H6         -0.6645    1.5408    5.7045 H         1 <0>         0.1387
     35 H7          1.3635    0.1475    5.7662 H         1 <0>         0.1333
     36 H8          1.4546    0.0668    1.5031 H         1 <0>         0.1397
     37 H9          0.0021   -0.0041    0.0020 H         1 <0>         0.0619
     38 H10         1.0099    1.4631    0.0003 H         1 <0>         0.0625
     39 H11        -0.2425    1.2411   -2.1283 H         1 <0>         0.0793
     40 H12        -1.7753    1.2154   -1.2238 H         1 <0>         0.0665
     41 H13        -0.7675    2.6825   -1.2255 H         1 <0>         0.0671
     42 H14         3.3870   -0.6211    2.8027 H         1 <0>         0.1223
     43 H15         3.3458   -0.5911    4.5819 H         1 <0>         0.1176
     44 H16         1.8637   -4.5229    0.4579 H         1 <0>         0.1484
     45 H17         1.3668   -6.5515   -0.8423 H         1 <0>         0.1461
     46 H18         0.6906   -8.7196    2.7688 H         1 <0>         0.1459
     47 H19         1.1938   -6.7027    4.0848 H         1 <0>         0.1440
@<TRIPOS>BOND
     1    1    2 1
     2    1   29 1
     3    1   30 1
     4    1   31 1
     5    2    3 1
     6    2   32 1
     7    2   33 1
     8    3    4 1
     9    4    9 ar
    10    4    5 ar
    11    5    6 ar
    12    5   34 1
    13    6    7 ar
    14    6   35 1
    15    7    8 ar
    16    7   13 1
    17    8    9 ar
    18    8   36 1
    19    9   10 1
    20   10   11 1
    21   11   12 1
    22   11   37 1
    23   11   38 1
    24   12   39 1
    25   12   40 1
    26   12   41 1
    27   13   14 1
    28   13   42 1
    29   13   43 1
    30   14   18 1
    31   14   15 2
    32   15   16 1
    33   16   17 2
    34   16   19 1
    35   17   18 1
    36   19   24 ar
    37   19   20 ar
    38   20   21 ar
    39   20   44 1
    40   21   22 ar
    41   21   45 1
    42   22   23 ar
    43   22   25 1
    44   23   24 ar
    45   23   46 1
    46   24   47 1
    47   25   26 1
    48   25   27 1
    49   25   28 1
@<TRIPOS>MOLECULE
ZINC11911374
   55    58     0     0     0
SMALL
USER_CHARGES
(E)-N-cyclopropyl-3-(3-fluorophenyl)-N-[[4-[(3-methyloxetan-3-yl)methoxy]phenyl]methyl]prop-2-enamide
@<TRIPOS>ATOM
      1 C1         -6.1719   -4.0857   -8.3979 C.3       1 <0>        -0.1280
      2 C2         -5.5042   -2.8211   -7.8541 C.3       1 <0>        -0.1280
      3 C3         -4.2349   -2.4082   -8.6229 C.3       1 <0>         0.0457
      4 O1         -5.1235   -1.6000   -9.4252 O.3       1 <0>        -0.3755
      5 C4         -6.1205   -1.5139   -8.3873 C.3       1 <0>         0.0480
      6 C5         -5.3258   -2.8453   -6.3348 C.3       1 <0>         0.0669
      7 O2         -4.7043   -4.0725   -5.9477 O.3       1 <0>        -0.3086
      8 C6         -4.4725   -4.2551   -4.6211 C.ar      1 <0>         0.1351
      9 C7         -3.8722   -5.4236   -4.1750 C.ar      1 <0>        -0.1546
     10 C8         -3.6371   -5.6065   -2.8261 C.ar      1 <0>        -0.0649
     11 C9         -3.9996   -4.6263   -1.9208 C.ar      1 <0>        -0.1459
     12 C10        -4.6031   -3.4633   -2.3623 C.ar      1 <0>        -0.0547
     13 C11        -4.8352   -3.2731   -3.7107 C.ar      1 <0>        -0.2114
     14 C12        -3.7420   -4.8286   -0.4498 C.3       1 <0>         0.1555
     15 N1         -2.4879   -4.1687   -0.0784 N.am      1 <0>        -0.5759
     16 C13        -1.2349   -4.9279   -0.0714 C.3       1 <0>         0.0661
     17 C14        -1.2917   -6.3891   -0.5212 C.3       1 <0>        -0.1828
     18 C15        -1.0949   -6.0506    0.9586 C.3       1 <0>        -0.1894
     19 C16        -2.4867   -2.8633    0.2568 C.2       1 <0>         0.5565
     20 O3         -3.5380   -2.2562    0.3426 O.2       1 <0>        -0.5368
     21 C17        -1.2207   -2.1755    0.5178 C.2       1 <0>        -0.2049
     22 C18        -1.2091   -0.8458    0.7394 C.2       1 <0>        -0.0209
     23 C19         0.0637   -0.1544    1.0017 C.ar      1 <0>        -0.0462
     24 C20         0.0795    1.2251    1.2320 C.ar      1 <0>        -0.1051
     25 C21         1.2750    1.8669    1.4767 C.ar      1 <0>        -0.0905
     26 C22         2.4587    1.1504    1.4951 C.ar      1 <0>        -0.1433
     27 C23         2.4526   -0.2168    1.2679 C.ar      1 <0>         0.0993
     28 C24         1.2624   -0.8732    1.0214 C.ar      1 <0>        -0.1394
     29 F1          3.6127   -0.9089    1.2881 F         1 <0>        -0.1367
     30 H1         -7.2166   -4.1072   -8.0876 H         1 <0>         0.0632
     31 H2         -6.1162   -4.0866   -9.4865 H         1 <0>         0.0667
     32 H3         -5.6587   -4.9643   -8.0071 H         1 <0>         0.0729
     33 H4         -3.5281   -1.8292   -8.0285 H         1 <0>         0.0828
     34 H5         -3.7653   -3.2256   -9.1701 H         1 <0>         0.0964
     35 H6         -7.1432   -1.6235   -8.7480 H         1 <0>         0.0978
     36 H7         -5.9927   -0.6618   -7.7197 H         1 <0>         0.0836
     37 H8         -6.3003   -2.7638   -5.8532 H         1 <0>         0.0684
     38 H9         -4.6983   -2.0081   -6.0292 H         1 <0>         0.0667
     39 H10        -3.5885   -6.1893   -4.8818 H         1 <0>         0.1308
     40 H11        -3.1695   -6.5158   -2.4783 H         1 <0>         0.1283
     41 H12        -4.8897   -2.7012   -1.6527 H         1 <0>         0.1325
     42 H13        -5.3026   -2.3626   -4.0555 H         1 <0>         0.1261
     43 H14        -3.6683   -5.8951   -0.2371 H         1 <0>         0.0883
     44 H15        -4.5625   -4.3993    0.1251 H         1 <0>         0.0941
     45 H16        -0.3392   -4.3590   -0.3207 H         1 <0>         0.1299
     46 H17        -2.2614   -6.7857   -0.8223 H         1 <0>         0.1036
     47 H18        -0.4332   -6.7818   -1.0661 H         1 <0>         0.1074
     48 H19        -0.1069   -6.2205    1.3866 H         1 <0>         0.1052
     49 H20        -1.9348   -6.2241    1.6312 H         1 <0>         0.0992
     50 H21        -0.2961   -2.7335    0.5328 H         1 <0>         0.1313
     51 H22        -2.1337   -0.2879    0.7244 H         1 <0>         0.1414
     52 H23        -0.8425    1.7872    1.2138 H         1 <0>         0.1368
     53 H24         1.2876    2.9321    1.6546 H         1 <0>         0.1388
     54 H25         3.3919    1.6591    1.6870 H         1 <0>         0.1388
     55 H26         1.2580   -1.9386    0.8441 H         1 <0>         0.1389
@<TRIPOS>BOND
     1    1    2 1
     2    1   30 1
     3    1   31 1
     4    1   32 1
     5    2    5 1
     6    2    3 1
     7    2    6 1
     8    3    4 1
     9    3   33 1
    10    3   34 1
    11    4    5 1
    12    5   35 1
    13    5   36 1
    14    6    7 1
    15    6   37 1
    16    6   38 1
    17    7    8 1
    18    8   13 ar
    19    8    9 ar
    20    9   10 ar
    21    9   39 1
    22   10   11 ar
    23   10   40 1
    24   11   12 ar
    25   11   14 1
    26   12   13 ar
    27   12   41 1
    28   13   42 1
    29   14   15 1
    30   14   43 1
    31   14   44 1
    32   15   16 1
    33   15   19 am
    34   16   18 1
    35   16   17 1
    36   16   45 1
    37   17   18 1
    38   17   46 1
    39   17   47 1
    40   18   48 1
    41   18   49 1
    42   19   20 2
    43   19   21 1
    44   21   22 2
    45   21   50 1
    46   22   23 1
    47   22   51 1
    48   23   28 ar
    49   23   24 ar
    50   24   25 ar
    51   24   52 1
    52   25   26 ar
    53   25   53 1
    54   26   27 ar
    55   26   54 1
    56   27   28 ar
    57   27   29 1
    58   28   55 1
@<TRIPOS>MOLECULE
ZINC35196987
   58    59     0     0     0
SMALL
USER_CHARGES

@<TRIPOS>ATOM
      1 C1         -0.6474   -0.1525   -1.4582 C.3       1 <0>        -0.1510
      2 C2         -0.3247   -1.4039   -0.6392 C.3       1 <0>        -0.1451
      3 C3          0.6409   -1.0392    0.4902 C.3       1 <0>         0.1037
      4 N1          0.9499   -2.2373    1.2745 N.am      1 <0>        -0.6081
      5 C4          2.0994   -3.0715    0.9154 C.3       1 <0>         0.1209
      6 C5          3.3153   -2.6473    1.7416 C.3       1 <0>        -0.1380
      7 C6          4.5159   -3.5185    1.3666 C.3       1 <0>        -0.1495
      8 C7          0.1767   -2.5722    2.3264 C.2       1 <0>         0.5307
      9 O1          0.4758   -3.5199    3.0216 O.2       1 <0>        -0.5085
     10 C8         -1.0596   -1.7690    2.6387 C.3       1 <0>         0.1134
     11 H1         -1.4239   -1.3013    1.7240 H         1 <0>         0.1087
     12 C9         -0.7034   -0.6616    3.6738 C.3       1 <0>        -0.0708
     13 S1         -2.4046   -0.3435    4.3253 S.3       1 <0>        -0.2408
     14 C10        -3.0655   -2.0474    4.0880 C.3       1 <0>         0.1694
     15 H2         -3.0897   -2.5864    5.0350 H         1 <0>         0.1282
     16 N2         -2.0900   -2.6587    3.1668 N.am      1 <0>        -0.6043
     17 C11        -2.1478   -3.9625    2.8304 C.2       1 <0>         0.5770
     18 O2         -1.4038   -4.4035    1.9761 O.2       1 <0>        -0.4880
     19 C12        -3.1151   -4.8556    3.4998 C.ar      1 <0>        -0.1750
     20 C13        -4.0594   -4.3304    4.3846 C.ar      1 <0>        -0.1266
     21 C14        -4.9597   -5.1694    5.0057 C.ar      1 <0>        -0.1457
     22 C15        -4.9306   -6.5309    4.7556 C.ar      1 <0>        -0.0584
     23 C16        -3.9997   -7.0604    3.8820 C.ar      1 <0>        -0.1671
     24 C17        -3.0938   -6.2306    3.2464 C.ar      1 <0>         0.1660
     25 F1         -2.1875   -6.7476    2.3882 F         1 <0>        -0.1132
     26 C18        -4.4589   -2.0037    3.4574 C.3       1 <0>        -0.1496
     27 C19        -5.4194   -1.2673    4.3933 C.3       1 <0>        -0.0950
     28 C20        -6.7617   -1.0624    3.6882 C.3       1 <0>        -0.1463
     29 C21        -5.6310   -2.0961    5.6619 C.3       1 <0>        -0.1713
     30 H3          0.2720    0.2512   -1.8824 H         1 <0>         0.0579
     31 H4         -1.3353   -0.4124   -2.2628 H         1 <0>         0.0594
     32 H5         -1.1087    0.5951   -0.8130 H         1 <0>         0.0567
     33 H6         -1.2440   -1.8076   -0.2150 H         1 <0>         0.0637
     34 H7          0.1367   -2.1515   -1.2844 H         1 <0>         0.0695
     35 H8          1.5603   -0.6355    0.0661 H         1 <0>         0.0864
     36 H9          0.1795   -0.2916    1.1355 H         1 <0>         0.0753
     37 H10         1.8679   -4.1168    1.1201 H         1 <0>         0.0829
     38 H11         2.3201   -2.9492   -0.1450 H         1 <0>         0.0774
     39 H12         3.5469   -1.6021    1.5370 H         1 <0>         0.0611
     40 H13         3.0947   -2.7697    2.8020 H         1 <0>         0.0662
     41 H14         4.7365   -3.3962    0.3062 H         1 <0>         0.0550
     42 H15         5.3821   -3.2163    1.9552 H         1 <0>         0.0573
     43 H16         4.2843   -4.5638    1.5713 H         1 <0>         0.0569
     44 H17        -0.0396   -1.0383    4.4520 H         1 <0>         0.1100
     45 H18        -0.2876    0.2218    3.1892 H         1 <0>         0.1331
     46 H19        -4.0839   -3.2689    4.5821 H         1 <0>         0.1959
     47 H20        -5.6900   -4.7634    5.6900 H         1 <0>         0.1405
     48 H21        -5.6387   -7.1825    5.2459 H         1 <0>         0.1397
     49 H22        -3.9823   -8.1234    3.6921 H         1 <0>         0.1443
     50 H23        -4.4093   -1.4803    2.5025 H         1 <0>         0.0896
     51 H24        -4.8168   -3.0206    3.2962 H         1 <0>         0.1037
     52 H25        -4.9967   -0.2983    4.6587 H         1 <0>         0.0838
     53 H26        -7.4166   -0.4630    4.3207 H         1 <0>         0.0613
     54 H27        -6.5998   -0.5471    2.7414 H         1 <0>         0.0582
     55 H28        -7.2250   -2.0309    3.5002 H         1 <0>         0.0576
     56 H29        -4.6766   -2.2319    6.1706 H         1 <0>         0.0570
     57 H30        -6.3248   -1.5772    6.3234 H         1 <0>         0.0673
     58 H31        -6.0424   -3.0697    5.3954 H         1 <0>         0.0667
@<TRIPOS>BOND
     1    1    2 1
     2    1   30 1
     3    1   31 1
     4    1   32 1
     5    2    3 1
     6    2   33 1
     7    2   34 1
     8    3    4 1
     9    3   35 1
    10    3   36 1
    11    4    5 1
    12    4    8 am
    13    5    6 1
    14    5   37 1
    15    5   38 1
    16    6    7 1
    17    6   39 1
    18    6   40 1
    19    7   41 1
    20    7   42 1
    21    7   43 1
    22    8    9 2
    23    8   10 1
    24   10   11 1
    25   10   16 1
    26   10   12 1
    27   12   13 1
    28   12   44 1
    29   12   45 1
    30   13   14 1
    31   14   15 1
    32   14   16 1
    33   14   26 1
    34   16   17 am
    35   17   18 2
    36   17   19 1
    37   19   24 ar
    38   19   20 ar
    39   20   21 ar
    40   20   46 1
    41   21   22 ar
    42   21   47 1
    43   22   23 ar
    44   22   48 1
    45   23   24 ar
    46   23   49 1
    47   24   25 1
    48   26   27 1
    49   26   50 1
    50   26   51 1
    51   27   28 1
    52   27   29 1
    53   27   52 1
    54   28   53 1
    55   28   54 1
    56   28   55 1
    57   29   56 1
    58   29   57 1
    59   29   58 1
@<TRIPOS>MOLECULE
ZINC42367707
   45    47     0     0     0
SMALL
USER_CHARGES

@<TRIPOS>ATOM
      1 C1          0.0264    0.9995    1.0814 C.3       1 <0>         0.0310
      2 O1          0.1121   -0.4120    0.8755 O.3       1 <0>        -0.3887
      3 C2          0.5922   -0.7825   -0.4184 C.3       1 <0>         0.0671
      4 C3          0.6424   -2.3079   -0.5261 C.3       1 <0>        -0.1364
      5 C4          1.1565   -2.7047   -1.9115 C.3       1 <0>         0.1045
      6 N1          1.2046   -4.1653   -2.0146 N.pl3     1 <0>        -0.4512
      7 C5          2.2461   -4.9901   -1.6571 C.2       1 <0>         0.2210
      8 N2          1.8691   -6.2207   -1.9152 N.2       1 <0>        -0.2453
      9 N3          0.6801   -6.2222   -2.4027 N.2       1 <0>        -0.2881
     10 C6          0.2226   -4.9925   -2.4803 C.2       1 <0>         0.1629
     11 S1         -1.3607   -4.5021   -3.0781 S.3       1 <0>         0.0073
     12 C7         -2.1616   -6.0651   -3.5324 C.3       1 <0>        -0.0599
     13 C8         -3.5428   -5.7852   -4.0663 C.ar      1 <0>        -0.0542
     14 C9         -4.6221   -5.7441   -3.2031 C.ar      1 <0>        -0.1073
     15 C10        -5.8895   -5.4875   -3.6913 C.ar      1 <0>        -0.0885
     16 C11        -6.0794   -5.2720   -5.0434 C.ar      1 <0>        -0.1430
     17 C12        -4.9994   -5.3129   -5.9086 C.ar      1 <0>         0.1002
     18 C13        -3.7292   -5.5641   -5.4174 C.ar      1 <0>        -0.1330
     19 F1         -5.1839   -5.1029   -7.2303 F         1 <0>        -0.1359
     20 C14         3.5450   -4.5697   -1.0901 C.ar      1 <0>        -0.0118
     21 C15         4.2684   -3.5355   -1.6862 C.ar      1 <0>        -0.0905
     22 C16         5.4795   -3.1476   -1.1519 C.ar      1 <0>        -0.1122
     23 C17         5.9784   -3.7812   -0.0272 C.ar      1 <0>        -0.0890
     24 C18         5.2675   -4.8068    0.5692 C.ar      1 <0>        -0.1082
     25 C19         4.0511   -5.2017    0.0479 C.ar      1 <0>         0.0000
     26 Cl1         3.1566   -6.4847    0.8013 Cl        1 <0>        -0.0408
     27 H1          1.0148    1.4442    0.9656 H         1 <0>         0.0432
     28 H2         -0.6550    1.4328    0.3492 H         1 <0>         0.0439
     29 H3         -0.3459    1.1982    2.0864 H         1 <0>         0.0893
     30 H4         -0.0775   -0.3863   -1.1817 H         1 <0>         0.0557
     31 H5          1.5923   -0.3748   -0.5653 H         1 <0>         0.0540
     32 H6          1.3121   -2.7042    0.2371 H         1 <0>         0.0816
     33 H7         -0.3577   -2.7157   -0.3792 H         1 <0>         0.0856
     34 H8          0.4868   -2.3084   -2.6748 H         1 <0>         0.1053
     35 H9          2.1566   -2.2969   -2.0584 H         1 <0>         0.1036
     36 H10        -1.5707   -6.5668   -4.2987 H         1 <0>         0.1101
     37 H11        -2.2348   -6.7049   -2.6530 H         1 <0>         0.1121
     38 H12        -4.4748   -5.9130   -2.1466 H         1 <0>         0.1355
     39 H13        -6.7319   -5.4556   -3.0161 H         1 <0>         0.1387
     40 H14        -7.0698   -5.0722   -5.4247 H         1 <0>         0.1391
     41 H15        -2.8853   -5.5918   -6.0909 H         1 <0>         0.1402
     42 H16         3.8808   -3.0401   -2.5641 H         1 <0>         0.1320
     43 H17         6.0401   -2.3477   -1.6127 H         1 <0>         0.1378
     44 H18         6.9274   -3.4735    0.3865 H         1 <0>         0.1395
     45 H19         5.6625   -5.2971    1.4467 H         1 <0>         0.1429
@<TRIPOS>BOND
     1    1    2 1
     2    1   27 1
     3    1   28 1
     4    1   29 1
     5    2    3 1
     6    3    4 1
     7    3   30 1
     8    3   31 1
     9    4    5 1
    10    4   32 1
    11    4   33 1
    12    5    6 1
    13    5   34 1
    14    5   35 1
    15    6   10 1
    16    6    7 1
    17    7    8 2
    18    7   20 1
    19    8    9 1
    20    9   10 2
    21   10   11 1
    22   11   12 1
    23   12   13 1
    24   12   36 1
    25   12   37 1
    26   13   18 ar
    27   13   14 ar
    28   14   15 ar
    29   14   38 1
    30   15   16 ar
    31   15   39 1
    32   16   17 ar
    33   16   40 1
    34   17   18 ar
    35   17   19 1
    36   18   41 1
    37   20   25 ar
    38   20   21 ar
    39   21   22 ar
    40   21   42 1
    41   22   23 ar
    42   22   43 1
    43   23   24 ar
    44   23   44 1
    45   24   25 ar
    46   24   45 1
    47   25   26 1
@<TRIPOS>MOLECULE
ZINC59962823
   51    53     0     0     0
SMALL
USER_CHARGES

@<TRIPOS>ATOM
      1 C1         -0.0163    1.3513    0.0095 C.2       1 <0>        -0.1570
      2 C2          1.1833    2.0380    0.0017 C.2       1 <0>        -0.1331
      3 C3          2.3426    1.3358   -0.0131 C.2       1 <0>        -0.1536
      4 S1          1.7535   -0.3495   -0.0166 S.3       1 <0>         0.0311
      5 C4          0.0021   -0.0041    0.0020 C.2       1 <0>        -0.1640
      6 C5          3.7608    1.8454   -0.0244 C.3       1 <0>         0.0552
      7 C6          4.2473    2.0081    1.3926 C.2       1 <0>         0.1886
      8 N1          4.1367    3.0773    2.1290 N.2       1 <0>        -0.2731
      9 N2          4.6578    2.8722    3.2859 N.2       1 <0>        -0.2914
     10 C7          5.1332    1.6502    3.3504 C.2       1 <0>         0.1617
     11 N3          4.8814    1.0589    2.1457 N.pl3     1 <0>        -0.4491
     12 C8          5.2226   -0.3076    1.7425 C.3       1 <0>         0.1348
     13 C9          4.5293   -1.3026    2.6753 C.3       1 <0>        -0.1344
     14 C10         4.8856   -2.7298    2.2542 C.3       1 <0>        -0.1135
     15 C11         6.4010   -2.9229    2.3380 C.3       1 <0>        -0.1255
     16 C12         7.0943   -1.9278    1.4052 C.3       1 <0>        -0.1140
     17 C13         6.7380   -0.5007    1.8263 C.3       1 <0>        -0.1356
     18 S2          5.9381    0.9108    4.7325 S.3       1 <0>         0.0094
     19 C14         5.9396    2.2179    5.9903 C.3       1 <0>        -0.1089
     20 C15         6.6189    1.7024    7.2607 C.3       1 <0>        -0.1044
     21 C16         6.6202    2.8048    8.3216 C.3       1 <0>         0.0708
     22 O1          7.2546    2.3234    9.5081 O.3       1 <0>        -0.3722
     23 C17         7.3089    3.2808   10.5676 C.3       1 <0>         0.0190
     24 C18         8.0049    2.6601   11.7806 C.3       1 <0>         0.4616
     25 F1          9.3043    2.2798   11.4286 F         1 <0>        -0.1751
     26 F2          8.0581    3.5974   12.8178 F         1 <0>        -0.1755
     27 F3          7.2885    1.5357   12.2044 F         1 <0>        -0.1751
     28 H1         -0.9542    1.8866    0.0258 H         1 <0>         0.1369
     29 H2          1.1967    3.1179    0.0070 H         1 <0>         0.1381
     30 H3         -0.8275   -0.6955    0.0065 H         1 <0>         0.1874
     31 H4          4.3986    1.1333   -0.5480 H         1 <0>         0.0988
     32 H5          3.7967    2.8084   -0.5337 H         1 <0>         0.1258
     33 H6          4.8907   -0.4777    0.7183 H         1 <0>         0.1047
     34 H7          4.8612   -1.1325    3.6995 H         1 <0>         0.0831
     35 H8          3.4497   -1.1650    2.6157 H         1 <0>         0.0741
     36 H9          4.3917   -3.4387    2.9188 H         1 <0>         0.0745
     37 H10         4.5537   -2.8999    1.2300 H         1 <0>         0.0673
     38 H11         6.7329   -2.7527    3.3622 H         1 <0>         0.0679
     39 H12         6.6548   -3.9396    2.0380 H         1 <0>         0.0701
     40 H13         8.1739   -2.0654    1.4649 H         1 <0>         0.0747
     41 H14         6.7624   -2.0980    0.3810 H         1 <0>         0.0667
     42 H15         7.2319    0.2082    1.1618 H         1 <0>         0.0719
     43 H16         7.0699   -0.3305    2.8505 H         1 <0>         0.0844
     44 H17         6.4835    3.0841    5.6135 H         1 <0>         0.0996
     45 H18         4.9129    2.5043    6.2179 H         1 <0>         0.0992
     46 H19         6.0750    0.8362    7.6376 H         1 <0>         0.0869
     47 H20         7.6456    1.4159    7.0331 H         1 <0>         0.0871
     48 H21         7.1640    3.6710    7.9447 H         1 <0>         0.0634
     49 H22         5.5934    3.0913    8.5492 H         1 <0>         0.0633
     50 H23         7.8670    4.1568   10.2373 H         1 <0>         0.0989
     51 H24         6.2964    3.5771   10.8418 H         1 <0>         0.0988
@<TRIPOS>BOND
     1    1    5 2
     2    1    2 1
     3    1   28 1
     4    2    3 2
     5    2   29 1
     6    3    4 1
     7    3    6 1
     8    4    5 1
     9    5   30 1
    10    6    7 1
    11    6   31 1
    12    6   32 1
    13    7   11 1
    14    7    8 2
    15    8    9 1
    16    9   10 2
    17   10   11 1
    18   10   18 1
    19   11   12 1
    20   12   17 1
    21   12   13 1
    22   12   33 1
    23   13   14 1
    24   13   34 1
    25   13   35 1
    26   14   15 1
    27   14   36 1
    28   14   37 1
    29   15   16 1
    30   15   38 1
    31   15   39 1
    32   16   17 1
    33   16   40 1
    34   16   41 1
    35   17   42 1
    36   17   43 1
    37   18   19 1
    38   19   20 1
    39   19   44 1
    40   19   45 1
    41   20   21 1
    42   20   46 1
    43   20   47 1
    44   21   22 1
    45   21   48 1
    46   21   49 1
    47   22   23 1
    48   23   24 1
    49   23   50 1
    50   23   51 1
    51   24   25 1
    52   24   26 1
    53   24   27 1
@<TRIPOS>MOLECULE
ZINC08454089
   52    55     0     0     0
SMALL
USER_CHARGES
[4-[[4-(p-tolyl)thiazol-2-yl]aminoiminomethyl]phenyl] 3-methylbenzoate
@<TRIPOS>ATOM
      1 C1         -5.6559   21.0497    0.7765 C.3       1 <0>        -0.1174
      2 C2         -5.2335   19.6043    0.7174 C.ar      1 <0>        -0.0795
      3 C3         -3.8911   19.2818    0.6304 C.ar      1 <0>        -0.1252
      4 C4         -3.4985   17.9599    0.5760 C.ar      1 <0>        -0.0809
      5 C5         -4.4575   16.9489    0.6089 C.ar      1 <0>        -0.0324
      6 C6         -5.8090   17.2799    0.6909 C.ar      1 <0>        -0.0979
      7 C7         -6.1897   18.6051    0.7500 C.ar      1 <0>        -0.1221
      8 C8         -4.0418   15.5264    0.5508 C.2       1 <0>         0.1363
      9 C9         -4.9792   14.5320    0.5829 C.2       1 <0>        -0.2368
     10 S1         -3.9327   13.0859    0.4783 S.3       1 <0>         0.0448
     11 C10        -2.3677   13.9470    0.4137 C.2       1 <0>         0.3890
     12 N1         -2.7586   15.2079    0.4669 N.2       1 <0>        -0.5590
     13 N2         -1.0863   13.4300    0.3252 N.pl3     1 <0>        -0.5210
     14 N3         -0.8920   12.0433    0.2806 N.2       1 <0>        -0.2319
     15 C11         0.3097   11.5584    0.1976 C.2       1 <0>         0.1222
     16 C12         0.5142   10.0993    0.1507 C.ar      1 <0>        -0.0523
     17 C13         1.8066    9.5753    0.0614 C.ar      1 <0>        -0.0702
     18 C14         1.9930    8.2105    0.0183 C.ar      1 <0>        -0.1204
     19 C15         0.8987    7.3562    0.0640 C.ar      1 <0>         0.1016
     20 C16        -0.3879    7.8727    0.1470 C.ar      1 <0>        -0.1199
     21 C17        -0.5837    9.2359    0.1959 C.ar      1 <0>        -0.0639
     22 O1          1.0873    6.0113    0.0216 O.3       1 <0>        -0.2901
     23 C18         1.5072    5.4166    1.1552 C.2       1 <0>         0.5090
     24 O2          1.7851    6.0899    2.1274 O.2       1 <0>        -0.4835
     25 C19         1.6296    3.9458    1.2160 C.ar      1 <0>        -0.1236
     26 C20         1.3109    3.1687    0.1002 C.ar      1 <0>        -0.0672
     27 C21         1.4270    1.7959    0.1641 C.ar      1 <0>        -0.1274
     28 C22         1.8578    1.1882    1.3304 C.ar      1 <0>        -0.0812
     29 C23         2.1697    1.9516    2.4412 C.ar      1 <0>        -0.0960
     30 C24         2.0640    3.3262    2.3893 C.ar      1 <0>        -0.0539
     31 C25         2.6316    1.2805    3.7091 C.3       1 <0>        -0.1171
     32 H1         -5.8185   21.4223   -0.2348 H         1 <0>         0.0718
     33 H2         -6.5801   21.1350    1.3481 H         1 <0>         0.0673
     34 H3         -4.8747   21.6371    1.2590 H         1 <0>         0.0670
     35 H4         -3.1489   20.0659    0.6053 H         1 <0>         0.1237
     36 H5         -2.4502   17.7092    0.5077 H         1 <0>         0.1309
     37 H6         -6.5566   16.5008    0.7122 H         1 <0>         0.1257
     38 H7         -7.2363   18.8627    0.8177 H         1 <0>         0.1257
     39 H8         -6.0550   14.6009    0.6485 H         1 <0>         0.1986
     40 H9         -0.3232   14.0280    0.2940 H         1 <0>         0.4071
     41 H10         1.1594   12.2242    0.1629 H         1 <0>         0.1310
     42 H11         2.6580   10.2387    0.0259 H         1 <0>         0.1399
     43 H12         2.9914    7.8046   -0.0507 H         1 <0>         0.1354
     44 H13        -1.2361    7.2047    0.1775 H         1 <0>         0.1383
     45 H14        -1.5843    9.6365    0.2646 H         1 <0>         0.1439
     46 H15         0.9739    3.6416   -0.8104 H         1 <0>         0.1396
     47 H16         1.1809    1.1937   -0.6980 H         1 <0>         0.1348
     48 H17         1.9466    0.1128    1.3751 H         1 <0>         0.1317
     49 H18         2.3120    3.9213    3.2558 H         1 <0>         0.1386
     50 H19         3.7173    1.1855    3.6951 H         1 <0>         0.0751
     51 H20         2.3302    1.8800    4.5681 H         1 <0>         0.0707
     52 H21         2.1812    0.2905    3.7810 H         1 <0>         0.0713
@<TRIPOS>BOND
     1    1    2 1
     2    1   32 1
     3    1   33 1
     4    1   34 1
     5    2    7 ar
     6    2    3 ar
     7    3    4 ar
     8    3   35 1
     9    4    5 ar
    10    4   36 1
    11    5    6 ar
    12    5    8 1
    13    6    7 ar
    14    6   37 1
    15    7   38 1
    16    8   12 1
    17    8    9 2
    18    9   10 1
    19    9   39 1
    20   10   11 1
    21   11   12 2
    22   11   13 1
    23   13   14 1
    24   13   40 1
    25   14   15 2
    26   15   16 1
    27   15   41 1
    28   16   21 ar
    29   16   17 ar
    30   17   18 ar
    31   17   42 1
    32   18   19 ar
    33   18   43 1
    34   19   20 ar
    35   19   22 1
    36   20   21 ar
    37   20   44 1
    38   21   45 1
    39   22   23 1
    40   23   24 2
    41   23   25 1
    42   25   30 ar
    43   25   26 ar
    44   26   27 ar
    45   26   46 1
    46   27   28 ar
    47   27   47 1
    48   28   29 ar
    49   28   48 1
    50   29   30 ar
    51   29   31 1
    52   30   49 1
    53   31   50 1
    54   31   51 1
    55   31   52 1
@<TRIPOS>MOLECULE
ZINC02426658
   57    61     0     0     0
SMALL
USER_CHARGES
butyl-methylsulfanyl-N-[[(2S)-tetrahydrofuran-2-yl]methyl]BLAHamine
@<TRIPOS>ATOM
      1 C1         -5.7825   -5.9129    2.9189 C.3       1 <0>        -0.1542
      2 C2         -5.4509   -5.5318    1.4747 C.3       1 <0>        -0.1232
      3 C3         -4.4072   -4.4131    1.4693 C.3       1 <0>        -0.1124
      4 C4         -4.0756   -4.0319    0.0251 C.3       1 <0>        -0.0723
      5 C5         -3.0476   -2.9300    0.0197 C.ar      1 <0>         0.1967
      6 C6         -3.4591   -1.6040    0.0324 C.ar      1 <0>        -0.1588
      7 C7         -2.5217   -0.5961    0.0269 C.ar      1 <0>         0.0268
      8 C8         -1.1489   -0.9266    0.0096 C.ar      1 <0>        -0.1356
      9 C9          0.0021   -0.0041    0.0020 C.ar      1 <0>         0.2420
     10 C10         1.2664   -0.6031   -0.0139 C.ar      1 <0>        -0.3023
     11 C11         2.4231    0.1652   -0.0213 C.ar      1 <0>         0.5136
     12 N1          2.3034    1.4917   -0.0133 N.ar      1 <0>        -0.5668
     13 C12         1.0988    2.0482    0.0026 C.ar      1 <0>         0.3464
     14 N2         -0.0163    1.3483    0.0095 N.ar      1 <0>        -0.5166
     15 S1          0.9864    3.8066    0.0133 S.3       1 <0>         0.0111
     16 C13         2.7451    4.2341   -0.0013 C.3       1 <0>        -0.1445
     17 N3          3.6727   -0.4343   -0.0373 N.pl3     1 <0>        -0.6964
     18 C14         4.8819    0.3928   -0.0449 C.3       1 <0>         0.1363
     19 C15         6.1171   -0.5098   -0.0624 C.3       1 <0>         0.0582
     20 H1          6.0661   -1.2372    0.7478 H         1 <0>         0.0777
     21 C16         7.4037    0.3371    0.0555 C.3       1 <0>        -0.1457
     22 C17         8.4129   -0.3829   -0.8668 C.3       1 <0>        -0.1556
     23 C18         7.6166   -1.5796   -1.4327 C.3       1 <0>         0.0437
     24 O1          6.2320   -1.1802   -1.3364 O.3       1 <0>        -0.3684
     25 S2          0.9378   -2.3442   -0.0199 S.3       1 <0>         0.1345
     26 C19        -0.8375   -2.2983   -0.0013 C.ar      1 <0>         0.1311
     27 N4         -1.7646   -3.2325    0.0035 N.ar      1 <0>        -0.4485
     28 C20        -3.2049    0.7509    0.0429 C.3       1 <0>        -0.0862
     29 C21        -4.6530    0.4603    0.4941 C.3       1 <0>        -0.1213
     30 C22        -4.8497   -1.0055    0.0517 C.3       1 <0>        -0.0737
     31 H2         -6.5260   -6.7100    2.9227 H         1 <0>         0.0553
     32 H3         -4.8782   -6.2573    3.4205 H         1 <0>         0.0540
     33 H4         -6.1795   -5.0431    3.4422 H         1 <0>         0.0538
     34 H5         -6.3552   -5.1875    0.9730 H         1 <0>         0.0637
     35 H6         -5.0539   -6.4016    0.9514 H         1 <0>         0.0644
     36 H7         -3.5029   -4.7574    1.9709 H         1 <0>         0.0677
     37 H8         -4.8043   -3.5432    1.9926 H         1 <0>         0.0645
     38 H9         -4.9800   -3.6876   -0.4766 H         1 <0>         0.0878
     39 H10        -3.6786   -4.9018   -0.4983 H         1 <0>         0.0888
     40 H11         3.2280    3.8157    0.8818 H         1 <0>         0.0900
     41 H12         3.2109    3.8255   -0.8980 H         1 <0>         0.0904
     42 H13         2.8555    5.3184    0.0036 H         1 <0>         0.1068
     43 H14         3.7467   -1.4015   -0.0433 H         1 <0>         0.4163
     44 H15         4.8827    1.0269   -0.9315 H         1 <0>         0.0808
     45 H16         4.9007    1.0172    0.8483 H         1 <0>         0.0854
     46 H17         7.2250    1.3539   -0.2940 H         1 <0>         0.0815
     47 H18         7.7638    0.3435    1.0843 H         1 <0>         0.0826
     48 H19         8.7330    0.2781   -1.6722 H         1 <0>         0.0781
     49 H20         9.2730   -0.7302   -0.2943 H         1 <0>         0.0798
     50 H21         7.8885   -1.7583   -2.4730 H         1 <0>         0.0946
     51 H22         7.7965   -2.4723   -0.8339 H         1 <0>         0.0621
     52 H23        -2.7135    1.4164    0.7527 H         1 <0>         0.0926
     53 H24        -3.1984    1.1907   -0.9544 H         1 <0>         0.0934
     54 H25        -4.7480    0.5539    1.5759 H         1 <0>         0.0758
     55 H26        -5.3569    1.1197   -0.0136 H         1 <0>         0.0845
     56 H27        -5.2915   -1.0432   -0.9440 H         1 <0>         0.0864
     57 H28        -5.4797   -1.5355    0.7661 H         1 <0>         0.0830
@<TRIPOS>BOND
     1    1    2 1
     2    1   31 1
     3    1   32 1
     4    1   33 1
     5    2    3 1
     6    2   34 1
     7    2   35 1
     8    3    4 1
     9    3   36 1
    10    3   37 1
    11    4    5 1
    12    4   38 1
    13    4   39 1
    14    5   27 ar
    15    5    6 ar
    16    6   30 1
    17    6    7 ar
    18    7    8 ar
    19    7   28 1
    20    8   26 ar
    21    8    9 1
    22    9   14 ar
    23    9   10 ar
    24   10   11 ar
    25   10   25 1
    26   11   12 ar
    27   11   17 1
    28   12   13 ar
    29   13   14 ar
    30   13   15 1
    31   15   16 1
    32   16   40 1
    33   16   41 1
    34   16   42 1
    35   17   18 1
    36   17   43 1
    37   18   19 1
    38   18   44 1
    39   18   45 1
    40   19   20 1
    41   19   24 1
    42   19   21 1
    43   21   22 1
    44   21   46 1
    45   21   47 1
    46   22   23 1
    47   22   48 1
    48   22   49 1
    49   23   24 1
    50   23   50 1
    51   23   51 1
    52   25   26 1
    53   26   27 ar
    54   28   29 1
    55   28   52 1
    56   28   53 1
    57   29   30 1
    58   29   54 1
    59   29   55 1
    60   30   56 1
    61   30   57 1
@<TRIPOS>MOLECULE
ZINC37547164
   59    62     0     0     0
SMALL
USER_CHARGES

@<TRIPOS>ATOM
      1 C1          0.8321    0.8494   -0.7935 C.3       1 <0>        -0.1153
      2 C2          0.2654   -0.5360   -0.6182 C.ar      1 <0>        -0.0658
      3 C3         -0.2814   -1.2007   -1.7008 C.ar      1 <0>        -0.1390
      4 C4         -0.8019   -2.4720   -1.5443 C.ar      1 <0>        -0.0952
      5 C5         -0.7772   -3.0823   -0.3053 C.ar      1 <0>        -0.1347
      6 C6         -0.2290   -2.4176    0.7836 C.ar      1 <0>         0.1505
      7 C7          0.2978   -1.1426    0.6218 C.ar      1 <0>        -0.1523
      8 N1         -0.2029   -3.0328    2.0400 N.am      1 <0>        -0.6740
      9 C8         -0.1815   -4.3773    2.1317 C.2       1 <0>         0.5140
     10 O1         -0.0911   -5.0522    1.1281 O.2       1 <0>        -0.5143
     11 C9         -0.2700   -5.0420    3.4813 C.3       1 <0>        -0.1338
     12 C10        -0.2246   -6.5612    3.3056 C.3       1 <0>        -0.0230
     13 C11        -0.3131   -7.2259    4.6552 C.2       1 <0>        -0.2083
     14 C12         0.7651   -7.5596    5.4803 C.2       1 <0>         0.0977
     15 N2          0.2974   -8.1200    6.5665 N.2       1 <0>        -0.2580
     16 N3         -1.0997   -8.1647    6.4744 N.pl3     1 <0>        -0.3262
     17 C13        -1.4561   -7.6020    5.2888 C.2       1 <0>         0.2517
     18 O2         -2.7211   -7.4473    4.8216 O.3       1 <0>        -0.2300
     19 C14        -3.2533   -8.4515    4.0769 C.ar      1 <0>         0.1139
     20 C15        -2.5528   -9.6375    3.9071 C.ar      1 <0>        -0.1890
     21 C16        -3.0961  -10.6566    3.1496 C.ar      1 <0>        -0.0762
     22 C17        -4.3367  -10.4958    2.5601 C.ar      1 <0>        -0.1439
     23 C18        -5.0366   -9.3154    2.7276 C.ar      1 <0>        -0.0474
     24 C19        -4.5005   -8.2951    3.4894 C.ar      1 <0>        -0.1372
     25 C20        -6.3881   -9.1435    2.0833 C.3       1 <0>        -0.1170
     26 C21        -1.9749   -8.6903    7.4358 C.ar      1 <0>         0.1342
     27 C22        -3.2047   -8.0865    7.6602 C.ar      1 <0>        -0.0895
     28 C23        -4.0653   -8.6056    8.6075 C.ar      1 <0>        -0.1323
     29 C24        -3.7020   -9.7274    9.3336 C.ar      1 <0>         0.1042
     30 C25        -2.4755  -10.3308    9.1115 C.ar      1 <0>        -0.1354
     31 C26        -1.6150   -9.8186    8.1604 C.ar      1 <0>        -0.0767
     32 F1         -4.5449  -10.2335   10.2601 F         1 <0>        -0.1320
     33 C27         2.2197   -7.3158    5.1710 C.3       1 <0>        -0.0792
     34 H1          1.8874    0.7796   -1.0573 H         1 <0>         0.0718
     35 H2          0.2923    1.3649   -1.5878 H         1 <0>         0.0683
     36 H3          0.7264    1.4057    0.1379 H         1 <0>         0.0663
     37 H4         -0.3021   -0.7256   -2.6705 H         1 <0>         0.1225
     38 H5         -1.2285   -2.9883   -2.3915 H         1 <0>         0.1256
     39 H6         -1.1843   -4.0752   -0.1836 H         1 <0>         0.1415
     40 H7          0.7287   -0.6247    1.4659 H         1 <0>         0.1240
     41 H8         -0.2002   -2.4917    2.8450 H         1 <0>         0.4115
     42 H9          0.5691   -4.7225    4.0994 H         1 <0>         0.0993
     43 H10        -1.2054   -4.7599    3.9647 H         1 <0>         0.0989
     44 H11        -1.0637   -6.8806    2.6875 H         1 <0>         0.0791
     45 H12         0.7107   -6.8432    2.8222 H         1 <0>         0.0875
     46 H13        -1.5836   -9.7633    4.3667 H         1 <0>         0.1223
     47 H14        -2.5514  -11.5797    3.0172 H         1 <0>         0.1282
     48 H15        -4.7594  -11.2937    1.9676 H         1 <0>         0.1280
     49 H16        -5.0498   -7.3750    3.6239 H         1 <0>         0.1339
     50 H17        -7.1633   -9.4877    2.7678 H         1 <0>         0.0756
     51 H18        -6.5490   -8.0906    1.8519 H         1 <0>         0.0704
     52 H19        -6.4293   -9.7280    1.1641 H         1 <0>         0.0719
     53 H20        -3.4881   -7.2112    7.0946 H         1 <0>         0.1432
     54 H21        -5.0220   -8.1361    8.7824 H         1 <0>         0.1477
     55 H22        -2.1937  -11.2055    9.6789 H         1 <0>         0.1479
     56 H23        -0.6606  -10.2923    7.9840 H         1 <0>         0.1449
     57 H24         2.5115   -6.3349    5.5464 H         1 <0>         0.0841
     58 H25         2.8268   -8.0836    5.6505 H         1 <0>         0.0801
     59 H26         2.3729   -7.3523    4.0925 H         1 <0>         0.0848
@<TRIPOS>BOND
     1    1    2 1
     2    1   34 1
     3    1   35 1
     4    1   36 1
     5    2    7 ar
     6    2    3 ar
     7    3    4 ar
     8    3   37 1
     9    4    5 ar
    10    4   38 1
    11    5    6 ar
    12    5   39 1
    13    6    7 ar
    14    6    8 1
    15    7   40 1
    16    8    9 am
    17    8   41 1
    18    9   10 2
    19    9   11 1
    20   11   12 1
    21   11   42 1
    22   11   43 1
    23   12   13 1
    24   12   44 1
    25   12   45 1
    26   13   17 2
    27   13   14 1
    28   14   15 2
    29   14   33 1
    30   15   16 1
    31   16   17 1
    32   16   26 1
    33   17   18 1
    34   18   19 1
    35   19   24 ar
    36   19   20 ar
    37   20   21 ar
    38   20   46 1
    39   21   22 ar
    40   21   47 1
    41   22   23 ar
    42   22   48 1
    43   23   24 ar
    44   23   25 1
    45   24   49 1
    46   25   50 1
    47   25   51 1
    48   25   52 1
    49   26   31 ar
    50   26   27 ar
    51   27   28 ar
    52   27   53 1
    53   28   29 ar
    54   28   54 1
    55   29   30 ar
    56   29   32 1
    57   30   31 ar
    58   30   55 1
    59   31   56 1
    60   33   57 1
    61   33   58 1
    62   33   59 1
@<TRIPOS>MOLECULE
ZINC36639918
   49    52     0     0     0
SMALL
USER_CHARGES

@<TRIPOS>ATOM
      1 C1         -0.0184    1.5028    0.0103 C.3       1 <0>        -0.0809
      2 C2          0.0021   -0.0041    0.0020 C.2       1 <0>         0.0977
      3 C3          0.0059   -0.7057   -1.1579 C.2       1 <0>        -0.2094
      4 S1          0.0324   -2.3787   -0.5350 S.3       1 <0>         0.1356
      5 C4          0.0358   -2.0151    1.1083 C.2       1 <0>         0.2623
      6 N1          0.0227   -0.6995    1.1241 N.2       1 <0>        -0.5141
      7 N2          0.0535   -2.8909    2.1859 N.am      1 <0>        -0.6143
      8 C5          0.0533   -2.4102    3.4450 C.2       1 <0>         0.6033
      9 O1          0.0375   -1.2086    3.6376 O.2       1 <0>        -0.4439
     10 C6          0.0720   -3.3347    4.5825 C.2       1 <0>        -0.0689
     11 C7          0.0684   -2.9835    5.9024 C.2       1 <0>        -0.1059
     12 C8          0.0906   -4.1786    6.6380 C.2       1 <0>        -0.1822
     13 C9          0.1066   -5.1941    5.7466 C.2       1 <0>         0.0160
     14 O2          0.0899   -4.6818    4.5092 O.3       1 <0>        -0.1571
     15 C10         0.1329   -6.6616    6.0885 C.3       1 <0>         0.1387
     16 O3         -1.2059   -7.1489    6.1991 O.3       1 <0>        -0.3096
     17 C11        -1.3604   -8.4640    6.5051 C.ar      1 <0>         0.1265
     18 C12        -0.2465   -9.2675    6.7006 C.ar      1 <0>        -0.2097
     19 C13        -0.4063  -10.6038    7.0120 C.ar      1 <0>        -0.0792
     20 C14        -1.6751  -11.1409    7.1285 C.ar      1 <0>        -0.1550
     21 C15        -2.7869  -10.3423    6.9337 C.ar      1 <0>        -0.0792
     22 C16        -2.6324   -9.0039    6.6282 C.ar      1 <0>        -0.1483
     23 C17        -0.0088   -0.2101   -2.5810 C.3       1 <0>         0.0119
     24 C18         1.4070   -0.0247   -3.0630 C.ar      1 <0>        -0.0736
     25 C19         2.0088    1.2170   -2.9792 C.ar      1 <0>        -0.0982
     26 C20         3.3073    1.3872   -3.4212 C.ar      1 <0>        -0.1122
     27 C21         4.0051    0.3158   -3.9473 C.ar      1 <0>        -0.1076
     28 C22         3.4046   -0.9260   -4.0316 C.ar      1 <0>        -0.1086
     29 C23         2.1066   -1.0983   -3.5840 C.ar      1 <0>        -0.0308
     30 Cl1         1.3539   -2.6594   -3.6834 Cl        1 <0>        -0.0639
     31 H1          1.0042    1.8801    0.0026 H         1 <0>         0.0765
     32 H2         -0.5455    1.8639   -0.8728 H         1 <0>         0.0757
     33 H3         -0.5286    1.8543    0.9071 H         1 <0>         0.0777
     34 H4          0.0661   -3.8486    2.0323 H         1 <0>         0.4306
     35 H5          0.0517   -1.9805    6.3025 H         1 <0>         0.1691
     36 H6          0.0943   -4.2695    7.7142 H         1 <0>         0.1655
     37 H7          0.6548   -7.2084    5.3031 H         1 <0>         0.0865
     38 H8          0.6511   -6.8045    7.0367 H         1 <0>         0.1030
     39 H9          0.7448   -8.8486    6.6091 H         1 <0>         0.1284
     40 H10         0.4606  -11.2297    7.1643 H         1 <0>         0.1269
     41 H11        -1.7979  -12.1859    7.3717 H         1 <0>         0.1257
     42 H12        -3.7769  -10.7642    7.0249 H         1 <0>         0.1314
     43 H13        -3.5012   -8.3795    6.4804 H         1 <0>         0.1318
     44 H14        -0.5156   -0.9383   -3.2142 H         1 <0>         0.0953
     45 H15        -0.5365    0.7425   -2.6287 H         1 <0>         0.1049
     46 H16         1.4641    2.0544   -2.5687 H         1 <0>         0.1340
     47 H17         3.7769    2.3576   -3.3558 H         1 <0>         0.1310
     48 H18         5.0196    0.4495   -4.2928 H         1 <0>         0.1326
     49 H19         3.9497   -1.7627   -4.4428 H         1 <0>         0.1342
@<TRIPOS>BOND
     1    1    2 1
     2    1   31 1
     3    1   32 1
     4    1   33 1
     5    2    6 1
     6    2    3 2
     7    3    4 1
     8    3   23 1
     9    4    5 1
    10    5    6 2
    11    5    7 1
    12    7    8 am
    13    7   34 1
    14    8    9 2
    15    8   10 1
    16   10   14 1
    17   10   11 2
    18   11   12 1
    19   11   35 1
    20   12   13 2
    21   12   36 1
    22   13   14 1
    23   13   15 1
    24   15   16 1
    25   15   37 1
    26   15   38 1
    27   16   17 1
    28   17   22 ar
    29   17   18 ar
    30   18   19 ar
    31   18   39 1
    32   19   20 ar
    33   19   40 1
    34   20   21 ar
    35   20   41 1
    36   21   22 ar
    37   21   42 1
    38   22   43 1
    39   23   24 1
    40   23   44 1
    41   23   45 1
    42   24   29 ar
    43   24   25 ar
    44   25   26 ar
    45   25   46 1
    46   26   27 ar
    47   26   47 1
    48   27   28 ar
    49   27   48 1
    50   28   29 ar
    51   28   49 1
    52   29   30 1
@<TRIPOS>MOLECULE
ZINC02947019
   45    47     0     0     0
SMALL
USER_CHARGES

@<TRIPOS>ATOM
      1 C1         -0.0187    1.5258    0.0104 C.3       1 <0>        -0.1532
      2 C2          0.0021   -0.0041    0.0020 C.3       1 <0>        -0.1220
      3 C3         -1.4333   -0.5336    0.0129 C.3       1 <0>        -0.1205
      4 C4         -1.4126   -2.0635    0.0045 C.3       1 <0>         0.0551
      5 O1         -2.7532   -2.5581    0.0146 O.3       1 <0>        -0.3101
      6 C5         -2.9129   -3.9069    0.0089 C.ar      1 <0>         0.1598
      7 C6         -1.7985   -4.7362   -0.0005 C.ar      1 <0>        -0.2136
      8 C7         -1.9560   -6.1050   -0.0068 C.ar      1 <0>        -0.0350
      9 C8         -3.2386   -6.6585   -0.0032 C.ar      1 <0>        -0.0774
     10 C9         -4.3565   -5.8209    0.0067 C.ar      1 <0>        -0.0226
     11 C10        -4.1901   -4.4532    0.0182 C.ar      1 <0>        -0.1574
     12 C11        -3.4122   -8.1247   -0.0104 C.2       1 <0>         0.3222
     13 N1         -4.5679   -8.7270   -0.0130 N.2       1 <0>        -0.4680
     14 C12        -4.3648  -10.0801   -0.0197 C.2       1 <0>        -0.1981
     15 C13        -5.3267  -11.0687   -0.0247 C.2       1 <0>         0.2813
     16 N2         -6.6462  -10.7344   -0.0225 N.pl3     1 <0>        -0.6105
     17 C14        -7.6210  -11.7363   -0.0275 C.ar      1 <0>         0.1803
     18 C15        -7.2447  -13.0734   -0.0289 C.ar      1 <0>        -0.1385
     19 C16        -8.2106  -14.0617   -0.0339 C.ar      1 <0>         0.0115
     20 C17        -9.5530  -13.7200   -0.0374 C.ar      1 <0>        -0.0475
     21 C18        -9.9307  -12.3891   -0.0360 C.ar      1 <0>        -0.0489
     22 C19        -8.9690  -11.3964   -0.0252 C.ar      1 <0>        -0.0650
     23 Cl1        -9.4439   -9.7267   -0.0162 Cl        1 <0>        -0.0303
     24 Cl2       -10.7636  -14.9642   -0.0443 Cl        1 <0>        -0.0254
     25 Cl3        -7.7411  -15.7330   -0.0363 Cl        1 <0>        -0.0206
     26 C20        -2.9082  -10.2580   -0.0212 C.2       1 <0>         0.4965
     27 O2         -2.2926  -11.3089   -0.0266 O.2       1 <0>        -0.4438
     28 O3         -2.3959   -9.0091   -0.0210 O.3       1 <0>        -0.2857
     29 H1          1.0039    1.9031    0.0027 H         1 <0>         0.0581
     30 H2         -0.5459    1.8868   -0.8726 H         1 <0>         0.0564
     31 H3         -0.5289    1.8773    0.9072 H         1 <0>         0.0564
     32 H4          0.5123   -0.3556   -0.8948 H         1 <0>         0.0655
     33 H5          0.5293   -0.3651    0.8851 H         1 <0>         0.0655
     34 H6         -1.9435   -0.1821    0.9097 H         1 <0>         0.0752
     35 H7         -1.9605   -0.1726   -0.8702 H         1 <0>         0.0752
     36 H8         -0.9024   -2.4150   -0.8923 H         1 <0>         0.0662
     37 H9         -0.8854   -2.4246    0.8875 H         1 <0>         0.0662
     38 H10        -0.8072   -4.3075   -0.0032 H         1 <0>         0.1373
     39 H11        -1.0891   -6.7491   -0.0148 H         1 <0>         0.1381
     40 H12        -5.3499   -6.2448    0.0091 H         1 <0>         0.1455
     41 H13        -5.0538   -3.8049    0.0299 H         1 <0>         0.1416
     42 H14        -5.0330  -12.1079   -0.0303 H         1 <0>         0.1837
     43 H15        -6.9100   -9.8010   -0.0174 H         1 <0>         0.4329
     44 H16        -6.1982  -13.3403   -0.0265 H         1 <0>         0.1603
     45 H17       -10.9780  -12.1255   -0.0388 H         1 <0>         0.1637
@<TRIPOS>BOND
     1    1    2 1
     2    1   29 1
     3    1   30 1
     4    1   31 1
     5    2    3 1
     6    2   32 1
     7    2   33 1
     8    3    4 1
     9    3   34 1
    10    3   35 1
    11    4    5 1
    12    4   36 1
    13    4   37 1
    14    5    6 1
    15    6   11 ar
    16    6    7 ar
    17    7    8 ar
    18    7   38 1
    19    8    9 ar
    20    8   39 1
    21    9   10 ar
    22    9   12 1
    23   10   11 ar
    24   10   40 1
    25   11   41 1
    26   12   28 1
    27   12   13 2
    28   13   14 1
    29   14   15 2
    30   14   26 1
    31   15   16 1
    32   15   42 1
    33   16   17 1
    34   16   43 1
    35   17   22 ar
    36   17   18 ar
    37   18   19 ar
    38   18   44 1
    39   19   20 ar
    40   19   25 1
    41   20   21 ar
    42   20   24 1
    43   21   22 ar
    44   21   45 1
    45   22   23 1
    46   26   27 2
    47   26   28 1
@<TRIPOS>MOLECULE
ZINC02620951
   42    44     0     0     0
SMALL
USER_CHARGES
N-(2-acetylphenyl)-2-[(8-ethyl-7-thia-3,5-diazabicyclo[4.3.0]nona-1,3,5,8-tetraen-2-yl)sulfanyl]acetamide
@<TRIPOS>ATOM
      1 C1          4.8448   -3.6016    1.3636 C.3       1 <0>        -0.1514
      2 C2          4.4546   -3.2307   -0.0686 C.3       1 <0>        -0.0449
      3 C3          3.3932   -2.1613   -0.0391 C.2       1 <0>        -0.1113
      4 C4          3.5559   -0.8299   -0.0348 C.2       1 <0>        -0.1308
      5 C5          2.3842    0.0275   -0.0041 C.ar      1 <0>        -0.1709
      6 C6          1.1487   -0.6559    0.0187 C.ar      1 <0>         0.1285
      7 S1          1.6223   -2.3646   -0.0018 S.3       1 <0>         0.1165
      8 N1          0.0029   -0.0043    0.0472 N.ar      1 <0>        -0.4852
      9 C7         -0.0151    1.3147    0.0551 C.ar      1 <0>         0.3327
     10 N2          1.1016    2.0193    0.0349 N.ar      1 <0>        -0.5381
     11 C8          2.2956    1.4474    0.0062 C.ar      1 <0>         0.1912
     12 S2          3.7562    2.4326   -0.0194 S.3       1 <0>         0.0622
     13 C9          3.0205    4.0861    0.0063 C.3       1 <0>        -0.1521
     14 C10         4.1141    5.1228   -0.0111 C.2       1 <0>         0.5311
     15 O1          5.2764    4.7778   -0.0382 O.2       1 <0>        -0.5016
     16 N3          3.8004    6.4335    0.0034 N.am      1 <0>        -0.6556
     17 C11         4.8072    7.3888    0.1038 C.ar      1 <0>         0.2131
     18 C12         6.0205    7.0646    0.6958 C.ar      1 <0>        -0.1505
     19 C13         7.0198    8.0120    0.7896 C.ar      1 <0>        -0.0586
     20 C14         6.8195    9.2955    0.3050 C.ar      1 <0>        -0.1526
     21 C15         5.6218    9.6394   -0.2806 C.ar      1 <0>        -0.0477
     22 C16         4.5995    8.6889   -0.3886 C.ar      1 <0>        -0.2151
     23 C17         3.3198    9.0477   -1.0110 C.2       1 <0>         0.4037
     24 O2          2.4058    8.2502   -1.0215 O.2       1 <0>        -0.4721
     25 C18         3.1412   10.4067   -1.6372 C.3       1 <0>        -0.1900
     26 H1          5.6124   -4.3751    1.3422 H         1 <0>         0.0689
     27 H2          5.2314   -2.7200    1.8747 H         1 <0>         0.0610
     28 H3          3.9684   -3.9740    1.8940 H         1 <0>         0.0602
     29 H4          4.0679   -4.1124   -0.5798 H         1 <0>         0.0865
     30 H5          5.3310   -2.8583   -0.5991 H         1 <0>         0.0940
     31 H6          4.5467   -0.4005   -0.0538 H         1 <0>         0.1466
     32 H7         -0.9642    1.8298    0.0739 H         1 <0>         0.2121
     33 H8          2.3843    4.2144   -0.8695 H         1 <0>         0.1324
     34 H9          2.4226    4.2038    0.9100 H         1 <0>         0.1326
     35 H10         2.8729    6.7109   -0.0561 H         1 <0>         0.4274
     36 H11         6.1839    6.0687    1.0802 H         1 <0>         0.1522
     37 H12         7.9629    7.7529    1.2475 H         1 <0>         0.1335
     38 H13         7.6072   10.0297    0.3876 H         1 <0>         0.1326
     39 H14         5.4710   10.6409   -0.6558 H         1 <0>         0.1377
     40 H15         3.8090   10.5255   -2.3720 H         1 <0>         0.0864
     41 H16         2.1337   10.4894   -2.0449 H         1 <0>         0.0880
     42 H17         3.2916   11.1776   -0.8813 H         1 <0>         0.0973
@<TRIPOS>BOND
     1    1    2 1
     2    1   26 1
     3    1   27 1
     4    1   28 1
     5    2    3 1
     6    2   29 1
     7    2   30 1
     8    3    7 1
     9    3    4 2
    10    4    5 1
    11    4   31 1
    12    5   11 ar
    13    5    6 ar
    14    6    7 1
    15    6    8 ar
    16    8    9 ar
    17    9   10 ar
    18    9   32 1
    19   10   11 ar
    20   11   12 1
    21   12   13 1
    22   13   14 1
    23   13   33 1
    24   13   34 1
    25   14   15 2
    26   14   16 am
    27   16   17 1
    28   16   35 1
    29   17   22 ar
    30   17   18 ar
    31   18   19 ar
    32   18   36 1
    33   19   20 ar
    34   19   37 1
    35   20   21 ar
    36   20   38 1
    37   21   22 ar
    38   21   39 1
    39   22   23 1
    40   23   24 2
    41   23   25 1
    42   25   40 1
    43   25   41 1
    44   25   42 1
@<TRIPOS>MOLECULE
ZINC24908353
   47    50     0     0     0
SMALL
USER_CHARGES
2-[2-(1-imidazol-1-ylvinyl)phenoxy]-N-(2-naphthyl)acetamide
@<TRIPOS>ATOM
      1 C1         -0.7292    4.1582   -1.9037 C.2       1 <0>        -0.1323
      2 C2         -0.0620    4.2186   -0.7516 C.2       1 <0>         0.1094
      3 C3          1.1914    3.4502   -0.5813 C.ar      1 <0>        -0.0949
      4 C4          2.4228    4.1039   -0.6061 C.ar      1 <0>        -0.0519
      5 C5          3.5884    3.3819   -0.4525 C.ar      1 <0>        -0.1536
      6 C6          3.5403    2.0110   -0.2679 C.ar      1 <0>        -0.0646
      7 C7          2.3254    1.3533   -0.2363 C.ar      1 <0>        -0.2105
      8 C8          1.1463    2.0650   -0.3896 C.ar      1 <0>         0.1500
      9 O1         -0.0484    1.4194   -0.3596 O.3       1 <0>        -0.2830
     10 C9         -0.0163    0.0040   -0.1660 C.3       1 <0>         0.0387
     11 C10        -1.4238   -0.5344   -0.1608 C.2       1 <0>         0.5169
     12 O2         -2.3621    0.2199   -0.3083 O.2       1 <0>        -0.4922
     13 N1         -1.6400   -1.8540    0.0078 N.am      1 <0>        -0.6839
     14 C11        -2.9467   -2.3395    0.1232 C.ar      1 <0>         0.1624
     15 C12        -3.9225   -1.5589    0.7544 C.ar      1 <0>        -0.1170
     16 C13        -5.2012   -2.0032    0.8763 C.ar      1 <0>        -0.0844
     17 C14        -5.5545   -3.2679    0.3737 C.ar      1 <0>        -0.0641
     18 C15        -6.8674   -3.7555    0.4908 C.ar      1 <0>        -0.0997
     19 C16        -7.1769   -4.9842   -0.0059 C.ar      1 <0>        -0.1218
     20 C17        -6.2104   -5.7702   -0.6309 C.ar      1 <0>        -0.1102
     21 C18        -4.9290   -5.3313   -0.7626 C.ar      1 <0>        -0.1121
     22 C19        -4.5716   -4.0671   -0.2620 C.ar      1 <0>        -0.0314
     23 C20        -3.2587   -3.5826   -0.3801 C.ar      1 <0>        -0.1413
     24 N2         -0.5471    5.0095    0.2984 N.pl3     1 <0>        -0.4149
     25 C21        -0.6629    6.3757    0.3036 C.2       1 <0>        -0.0543
     26 C22        -1.1728    6.7193    1.5015 C.2       1 <0>        -0.0270
     27 N3         -1.3571    5.5988    2.2154 N.2       1 <0>        -0.4926
     28 C23        -0.9861    4.5680    1.5058 C.2       1 <0>         0.2012
     29 H1         -1.6608    4.7293   -2.0304 H         1 <0>         0.1181
     30 H2         -0.3483    3.5373   -2.7279 H         1 <0>         0.1295
     31 H3          2.4643    5.1735   -0.7500 H         1 <0>         0.1315
     32 H4          4.5420    3.8884   -0.4760 H         1 <0>         0.1310
     33 H5          4.4569    1.4525   -0.1484 H         1 <0>         0.1311
     34 H6          2.2948    0.2834   -0.0922 H         1 <0>         0.1334
     35 H7          0.5526   -0.4649   -0.9824 H         1 <0>         0.0998
     36 H8          0.4669   -0.2237    0.7956 H         1 <0>         0.1012
     37 H9         -0.7888   -2.5492    0.0547 H         1 <0>         0.4373
     38 H10        -3.6564   -0.5884    1.1465 H         1 <0>         0.1349
     39 H11        -5.9436   -1.3878    1.3625 H         1 <0>         0.1322
     40 H12        -7.6271   -3.1579    0.9726 H         1 <0>         0.1277
     41 H13        -8.1867   -5.3561    0.0861 H         1 <0>         0.1237
     42 H14        -6.4823   -6.7418   -1.0160 H         1 <0>         0.1238
     43 H15        -4.1903   -5.9512   -1.2490 H         1 <0>         0.1267
     44 H16        -2.4993   -4.1808   -0.8618 H         1 <0>         0.1313
     45 H17        -0.3980    7.0472   -0.4998 H         1 <0>         0.1741
     46 H18        -1.3916    7.7239    1.8321 H         1 <0>         0.1715
     47 H19        -1.0224    3.5369    1.8250 H         1 <0>         0.2005
@<TRIPOS>BOND
     1    1    2 2
     2    1   29 1
     3    1   30 1
     4    2    3 1
     5    2   24 1
     6    3    8 ar
     7    3    4 ar
     8    4    5 ar
     9    4   31 1
    10    5    6 ar
    11    5   32 1
    12    6    7 ar
    13    6   33 1
    14    7    8 ar
    15    7   34 1
    16    8    9 1
    17    9   10 1
    18   10   11 1
    19   10   35 1
    20   10   36 1
    21   11   12 2
    22   11   13 am
    23   13   14 1
    24   13   37 1
    25   14   23 ar
    26   14   15 ar
    27   15   16 ar
    28   15   38 1
    29   16   17 ar
    30   16   39 1
    31   17   22 ar
    32   17   18 ar
    33   18   19 ar
    34   18   40 1
    35   19   20 ar
    36   19   41 1
    37   20   21 ar
    38   20   42 1
    39   21   22 ar
    40   21   43 1
    41   22   23 ar
    42   23   44 1
    43   24   28 1
    44   24   25 1
    45   25   26 2
    46   25   45 1
    47   26   27 1
    48   26   46 1
    49   27   28 2
    50   28   47 1
@<TRIPOS>MOLECULE
ZINC39476269
   38    38     0     0     0
SMALL
USER_CHARGES

@<TRIPOS>ATOM
      1 C1         -0.0187    1.5258    0.0104 C.3       1 <0>        -0.1689
      2 C2          0.0021   -0.0041    0.0020 C.3       1 <0>         0.0725
      3 H1         -1.0205   -0.3814    0.0098 H         1 <0>         0.1152
      4 C3          0.7309   -0.5033    1.2229 C.2       1 <0>         0.5200
      5 O1          1.7744   -1.1092    1.1007 O.2       1 <0>        -0.4967
      6 N1          0.2232   -0.2765    2.4506 N.am      1 <0>        -0.7168
      7 C4          0.9317   -0.7618    3.6375 C.3       1 <0>         0.2859
      8 C5          2.3255   -0.1330    3.6920 C.3       1 <0>        -0.1697
      9 C6          1.0567   -2.2269    3.5694 C.1       1 <0>         0.1991
     10 N2          1.1531   -3.3576    3.5169 N.1       1 <0>        -0.4046
     11 C7          0.1481   -0.3745    4.8932 C.3       1 <0>        -0.0940
     12 C8          0.8207   -0.9872    6.1233 C.3       1 <0>        -0.1541
     13 C9          0.1251    1.1492    5.0303 C.3       1 <0>        -0.1521
     14 O2          0.6709   -0.4649   -1.1737 O.3       1 <0>        -0.3184
     15 C10        -0.0890   -0.6734   -2.2687 C.2       1 <0>         0.5586
     16 O3         -1.2873   -0.4690   -2.2253 O.2       1 <0>        -0.4860
     17 C11         0.5282   -1.1452   -3.5084 C.2       1 <0>        -0.2463
     18 C12        -0.0653   -1.4136   -4.7341 C.2       1 <0>        -0.0518
     19 C13         0.7811   -1.8482   -5.7242 C.2       1 <0>        -0.1491
     20 C14         2.1039   -1.9833   -5.4490 C.2       1 <0>        -0.2285
     21 S1          2.2396   -1.5178   -3.8405 S.3       1 <0>         0.3290
     22 Br1         3.4798   -2.5567   -6.6126 Br        1 <0>         0.0541
     23 H2          1.0039    1.9031    0.0027 H         1 <0>         0.0783
     24 H3         -0.5459    1.8868   -0.8726 H         1 <0>         0.0795
     25 H4         -0.5289    1.8773    0.9072 H         1 <0>         0.0852
     26 H5         -0.6114    0.2081    2.5483 H         1 <0>         0.4116
     27 H6          2.2330    0.9519    3.7423 H         1 <0>         0.0847
     28 H7          2.8527   -0.4941    4.5750 H         1 <0>         0.0792
     29 H8          2.8838   -0.4089    2.7974 H         1 <0>         0.0867
     30 H9         -0.8730   -0.7476    4.8137 H         1 <0>         0.0881
     31 H10         1.8417   -0.6141    6.2027 H         1 <0>         0.0684
     32 H11         0.2624   -0.7113    7.0179 H         1 <0>         0.0718
     33 H12         0.8371   -2.0727    6.0256 H         1 <0>         0.0570
     34 H13        -0.3541    1.5857    4.1540 H         1 <0>         0.0601
     35 H14        -0.4332    1.4251    5.9249 H         1 <0>         0.0692
     36 H15         1.1461    1.5223    5.1098 H         1 <0>         0.0697
     37 H16        -1.1254   -1.2889   -4.8985 H         1 <0>         0.1614
     38 H17         0.3999   -2.0795   -6.7079 H         1 <0>         0.1516
@<TRIPOS>BOND
     1    1    2 1
     2    1   23 1
     3    1   24 1
     4    1   25 1
     5    2    3 1
     6    2    4 1
     7    2   14 1
     8    4    5 2
     9    4    6 am
    10    6    7 1
    11    6   26 1
    12    7    8 1
    13    7    9 1
    14    7   11 1
    15    8   27 1
    16    8   28 1
    17    8   29 1
    18    9   10 3
    19   11   12 1
    20   11   13 1
    21   11   30 1
    22   12   31 1
    23   12   32 1
    24   12   33 1
    25   13   34 1
    26   13   35 1
    27   13   36 1
    28   14   15 1
    29   15   16 2
    30   15   17 1
    31   17   21 1
    32   17   18 2
    33   18   19 1
    34   18   37 1
    35   19   20 2
    36   19   38 1
    37   20   21 1
    38   20   22 1
@<TRIPOS>MOLECULE
ZINC31448546
   46    48     0     0     0
SMALL
USER_CHARGES

@<TRIPOS>ATOM
      1 C1         -0.0104    1.4410   -0.0075 C.3       1 <0>         0.0776
      2 N1          0.0009   -0.0239   -0.0103 N.am      1 <0>        -0.5997
      3 C2          0.0235   -0.7587    1.2569 C.3       1 <0>         0.0980
      4 C3         -1.3894   -1.0216    1.7104 C.2       1 <0>         0.5006
      5 O1         -2.3234   -0.6334    1.0410 O.2       1 <0>        -0.5070
      6 N2         -1.6152   -1.6881    2.8599 N.am      1 <0>        -0.6707
      7 C4         -2.9240   -1.8507    3.3292 C.ar      1 <0>         0.1551
      8 C5         -3.9694   -2.0188    2.4310 C.ar      1 <0>        -0.1098
      9 C6         -5.2596   -2.1794    2.8970 C.ar      1 <0>        -0.0955
     10 C7         -5.5115   -2.1726    4.2568 C.ar      1 <0>        -0.1207
     11 C8         -4.4734   -2.0055    5.1546 C.ar      1 <0>        -0.0922
     12 C9         -3.1790   -1.8499    4.6951 C.ar      1 <0>        -0.0643
     13 Cl1        -1.8748   -1.6474    5.8228 Cl        1 <0>        -0.0645
     14 C10        -0.0096   -0.6957   -1.1787 C.2       1 <0>         0.5282
     15 O2         -0.0003   -1.9084   -1.1810 O.2       1 <0>        -0.5338
     16 C11        -0.0329    0.0602   -2.4822 C.3       1 <0>        -0.1560
     17 C12        -0.0408   -0.9319   -3.6469 C.3       1 <0>         0.1274
     18 N3         -0.0634   -0.1971   -4.9141 N.pl3     1 <0>        -0.4854
     19 C13        -1.1916    0.1092   -5.6251 C.2       1 <0>         0.0514
     20 C14        -0.8626    0.7866   -6.7363 C.2       1 <0>        -0.2027
     21 C15         0.5957    0.9256   -6.7372 C.ar      1 <0>        -0.1097
     22 C16         1.0470    0.2932   -5.5641 C.ar      1 <0>         0.0965
     23 C17         2.4093    0.2679   -5.2846 C.ar      1 <0>        -0.1306
     24 C18         3.2974    0.8629   -6.1540 C.ar      1 <0>        -0.0988
     25 C19         2.8468    1.4886   -7.3080 C.ar      1 <0>        -0.1474
     26 C20         1.5134    1.5178   -7.6064 C.ar      1 <0>        -0.0706
     27 H1          1.0144    1.8123   -0.0205 H         1 <0>         0.0650
     28 H2         -0.5389    1.8020   -0.8898 H         1 <0>         0.0777
     29 H3         -0.5150    1.7988    0.8900 H         1 <0>         0.0753
     30 H4          0.5428   -1.7069    1.1179 H         1 <0>         0.1212
     31 H5          0.5429   -0.1671    2.0108 H         1 <0>         0.1168
     32 H6         -0.8709   -2.0551    3.3620 H         1 <0>         0.4142
     33 H7         -3.7739   -2.0235    1.3688 H         1 <0>         0.1474
     34 H8         -6.0729   -2.3102    2.1986 H         1 <0>         0.1337
     35 H9         -6.5215   -2.2977    4.6183 H         1 <0>         0.1350
     36 H10        -4.6735   -2.0003    6.2159 H         1 <0>         0.1385
     37 H11        -0.9283    0.6801   -2.5268 H         1 <0>         0.1044
     38 H12         0.8514    0.6938   -2.5506 H         1 <0>         0.1024
     39 H13         0.8547   -1.5518   -3.6023 H         1 <0>         0.0945
     40 H14        -0.9251   -1.5655   -3.5785 H         1 <0>         0.0992
     41 H15        -2.1979   -0.1553   -5.3354 H         1 <0>         0.1679
     42 H16        -1.5438    1.1583   -7.4875 H         1 <0>         0.1471
     43 H17         2.7697   -0.2161   -4.3890 H         1 <0>         0.1166
     44 H18         4.3547    0.8426   -5.9350 H         1 <0>         0.1242
     45 H19         3.5561    1.9505   -7.9787 H         1 <0>         0.1219
     46 H20         1.1699    2.0076   -8.5056 H         1 <0>         0.1216
@<TRIPOS>BOND
     1    1    2 1
     2    1   27 1
     3    1   28 1
     4    1   29 1
     5    2    3 1
     6    2   14 am
     7    3    4 1
     8    3   30 1
     9    3   31 1
    10    4    5 2
    11    4    6 am
    12    6    7 1
    13    6   32 1
    14    7   12 ar
    15    7    8 ar
    16    8    9 ar
    17    8   33 1
    18    9   10 ar
    19    9   34 1
    20   10   11 ar
    21   10   35 1
    22   11   12 ar
    23   11   36 1
    24   12   13 1
    25   14   15 2
    26   14   16 1
    27   16   17 1
    28   16   37 1
    29   16   38 1
    30   17   18 1
    31   17   39 1
    32   17   40 1
    33   18   22 1
    34   18   19 1
    35   19   20 2
    36   19   41 1
    37   20   21 1
    38   20   42 1
    39   21   26 ar
    40   21   22 ar
    41   22   23 ar
    42   23   24 ar
    43   23   43 1
    44   24   25 ar
    45   24   44 1
    46   25   26 ar
    47   25   45 1
    48   26   46 1
@<TRIPOS>MOLECULE
ZINC66646671
   52    53     0     0     0
SMALL
USER_CHARGES

@<TRIPOS>ATOM
      1 C1         -0.1391    2.6249   -1.2590 C.3       1 <0>        -0.1496
      2 C2         -0.2131    1.3329   -0.4428 C.3       1 <0>        -0.1338
      3 C3          0.6272    0.2507   -1.1236 C.3       1 <0>         0.1333
      4 H1          0.2990    0.1318   -2.1562 H         1 <0>         0.1032
      5 C4          0.4541   -1.0740   -0.3777 C.3       1 <0>        -0.1620
      6 N1          2.0386    0.6425   -1.1018 N.am      1 <0>        -0.6044
      7 C5          2.7174    0.8652    0.1772 C.3       1 <0>         0.0678
      8 C6          2.7127    0.7981   -2.2585 C.2       1 <0>         0.5616
      9 O1          2.1253    0.7175   -3.3201 O.2       1 <0>        -0.5311
     10 C7          4.1632    1.0663   -2.2366 C.ar      1 <0>        -0.1422
     11 C8          4.9683    0.4844   -1.2530 C.ar      1 <0>        -0.0729
     12 C9          6.3211    0.7361   -1.2355 C.ar      1 <0>        -0.1371
     13 C10         6.8880    1.5696   -2.1958 C.ar      1 <0>         0.1695
     14 C11         6.0888    2.1510   -3.1763 C.ar      1 <0>        -0.1608
     15 C12         4.7363    1.8982   -3.2029 C.ar      1 <0>        -0.0375
     16 N2          8.2551    1.8223   -2.1751 N.pl3     1 <0>        -1.0563
     17 S1          9.1331    1.7426   -3.5770 S.o2      1 <0>         2.6891
     18 O2          8.4740    2.5797   -4.5172 O.2       1 <0>        -0.9452
     19 O3         10.4945    1.9283   -3.2146 O.2       1 <0>        -0.9470
     20 C13         8.9943    0.0949   -4.1856 C.ar      1 <0>        -0.6785
     21 C14         9.8425   -0.8899   -3.7143 C.ar      1 <0>        -0.0203
     22 C15         9.7336   -2.1824   -4.1917 C.ar      1 <0>        -0.1378
     23 C16         8.7762   -2.4905   -5.1403 C.ar      1 <0>        -0.0255
     24 C17         7.9276   -1.5063   -5.6108 C.ar      1 <0>        -0.1047
     25 C18         8.0337   -0.2143   -5.1301 C.ar      1 <0>        -0.0116
     26 C19         6.8843   -1.8421   -6.6451 C.3       1 <0>        -0.1218
     27 C20         8.6581   -3.8996   -5.6616 C.3       1 <0>        -0.1296
     28 H2          0.8975    2.9558   -1.3222 H         1 <0>         0.0517
     29 H3         -0.5243    2.4433   -2.2624 H         1 <0>         0.0564
     30 H4         -0.7377    3.3959   -0.7740 H         1 <0>         0.0545
     31 H5          0.1721    1.5145    0.5606 H         1 <0>         0.0661
     32 H6         -1.2497    1.0019   -0.3796 H         1 <0>         0.0757
     33 H7          0.7823   -0.9551    0.6549 H         1 <0>         0.0591
     34 H8         -0.5961   -1.3655   -0.3939 H         1 <0>         0.0702
     35 H9          1.0527   -1.8450   -0.8627 H         1 <0>         0.0588
     36 H10         3.0919   -0.0842    0.5599 H         1 <0>         0.0594
     37 H11         3.5509    1.5523    0.0314 H         1 <0>         0.0808
     38 H12         2.0144    1.2932    0.8919 H         1 <0>         0.0739
     39 H13         4.5290   -0.1618   -0.5074 H         1 <0>         0.1398
     40 H14         6.9436    0.2868   -0.4759 H         1 <0>         0.1360
     41 H15         6.5314    2.7974   -3.9197 H         1 <0>         0.1632
     42 H16         4.1176    2.3457   -3.9667 H         1 <0>         0.1406
     43 H17         8.6945    2.0453   -1.3396 H         1 <0>         0.4298
     44 H18        10.5904   -0.6492   -2.9733 H         1 <0>         0.1387
     45 H19        10.3967   -2.9515   -3.8241 H         1 <0>         0.1342
     46 H20         7.3681    0.5540   -5.4949 H         1 <0>         0.1416
     47 H21         5.9627   -2.1434   -6.1471 H         1 <0>         0.0761
     48 H22         6.6925   -0.9665   -7.2654 H         1 <0>         0.0720
     49 H23         7.2430   -2.6592   -7.2710 H         1 <0>         0.0745
     50 H24         7.9599   -4.4598   -5.0397 H         1 <0>         0.0807
     51 H25         8.2931   -3.8777   -6.6884 H         1 <0>         0.0782
     52 H26         9.6359   -4.3804   -5.6338 H         1 <0>         0.0733
@<TRIPOS>BOND
     1    1    2 1
     2    1   28 1
     3    1   29 1
     4    1   30 1
     5    2    3 1
     6    2   31 1
     7    2   32 1
     8    3    4 1
     9    3    5 1
    10    3    6 1
    11    5   33 1
    12    5   34 1
    13    5   35 1
    14    6    7 1
    15    6    8 am
    16    7   36 1
    17    7   37 1
    18    7   38 1
    19    8    9 2
    20    8   10 1
    21   10   15 ar
    22   10   11 ar
    23   11   12 ar
    24   11   39 1
    25   12   13 ar
    26   12   40 1
    27   13   14 ar
    28   13   16 1
    29   14   15 ar
    30   14   41 1
    31   15   42 1
    32   16   17 1
    33   16   43 1
    34   17   18 2
    35   17   19 2
    36   17   20 1
    37   20   25 ar
    38   20   21 ar
    39   21   22 ar
    40   21   44 1
    41   22   23 ar
    42   22   45 1
    43   23   24 ar
    44   23   27 1
    45   24   25 ar
    46   24   26 1
    47   25   46 1
    48   26   47 1
    49   26   48 1
    50   26   49 1
    51   27   50 1
    52   27   51 1
    53   27   52 1
@<TRIPOS>MOLECULE
ZINC05301789
   53    55     0     0     0
SMALL
USER_CHARGES
(methyl-(o-tolylmethyl)carbamoyl)methyl 2-(6,7-dimethylbenzofuran-3-yl)acetate
@<TRIPOS>ATOM
      1 C1        -11.0012   -0.6143   -3.8568 C.3       1 <0>        -0.1192
      2 C2        -10.4574    0.7826   -4.0115 C.ar      1 <0>        -0.0789
      3 C3        -11.3163    1.8657   -3.9848 C.ar      1 <0>        -0.1168
      4 C4        -10.8174    3.1469   -4.1262 C.ar      1 <0>        -0.1173
      5 C5         -9.4596    3.3454   -4.2944 C.ar      1 <0>        -0.1236
      6 C6         -8.6004    2.2630   -4.3158 C.ar      1 <0>        -0.1073
      7 C7         -9.0999    0.9810   -4.1796 C.ar      1 <0>        -0.1037
      8 C8         -8.1637   -0.1995   -4.2083 C.3       1 <0>         0.1578
      9 N1         -6.7797    0.2763   -4.2750 N.am      1 <0>        -0.6130
     10 C9         -6.1737    0.5869   -5.5721 C.3       1 <0>         0.0678
     11 C10        -6.0641    0.4283   -3.1431 C.2       1 <0>         0.5164
     12 O1         -6.5659    0.1712   -2.0693 O.2       1 <0>        -0.5068
     13 C11        -4.6405    0.9178   -3.2117 C.3       1 <0>         0.0508
     14 O2         -4.0905    0.9966   -1.8702 O.3       1 <0>        -0.3334
     15 C12        -2.8215    1.4187   -1.7556 C.2       1 <0>         0.4615
     16 O3         -2.1911    1.7126   -2.7436 O.2       1 <0>        -0.4941
     17 C13        -2.1831    1.5260   -0.3948 C.3       1 <0>        -0.0355
     18 C14        -0.7667    2.0193   -0.5419 C.2       1 <0>        -0.1775
     19 C15         0.3429    1.2713   -0.6094 C.2       1 <0>         0.0333
     20 O4          1.4247    2.0582   -0.7441 O.3       1 <0>        -0.1874
     21 C16         1.0730    3.3597   -0.7659 C.ar      1 <0>         0.0575
     22 C17        -0.3251    3.4159   -0.6371 C.ar      1 <0>        -0.1147
     23 C18        -0.9784    4.6471   -0.6272 C.ar      1 <0>        -0.0748
     24 C19        -0.2452    5.8075   -0.7445 C.ar      1 <0>        -0.1268
     25 C20         1.1351    5.7527   -0.8717 C.ar      1 <0>        -0.0639
     26 C21         1.7932    4.5414   -0.8828 C.ar      1 <0>        -0.0727
     27 C22         3.2933    4.4996   -1.0212 C.3       1 <0>        -0.1168
     28 C23         1.9234    7.0308   -0.9995 C.3       1 <0>        -0.1169
     29 H1        -10.9296   -0.9185   -2.8126 H         1 <0>         0.0742
     30 H2        -12.0449   -0.6347   -4.1704 H         1 <0>         0.0684
     31 H3        -10.4225   -1.3001   -4.4755 H         1 <0>         0.0670
     32 H4        -12.3769    1.7106   -3.8530 H         1 <0>         0.1235
     33 H5        -11.4883    3.9930   -4.1050 H         1 <0>         0.1222
     34 H6         -9.0698    4.3466   -4.4045 H         1 <0>         0.1207
     35 H7         -7.5392    2.4183   -4.4428 H         1 <0>         0.1170
     36 H8         -8.3795   -0.8132   -5.0829 H         1 <0>         0.0944
     37 H9         -8.3005   -0.7937   -3.3048 H         1 <0>         0.1023
     38 H10        -5.6123   -0.2774   -5.9271 H         1 <0>         0.0660
     39 H11        -6.9567    0.8314   -6.2898 H         1 <0>         0.0829
     40 H12        -5.5010    1.4378   -5.4644 H         1 <0>         0.0725
     41 H13        -4.6176    1.9054   -3.6724 H         1 <0>         0.1015
     42 H14        -4.0464    0.2250   -3.8078 H         1 <0>         0.1031
     43 H15        -2.1788    0.5462    0.0828 H         1 <0>         0.1215
     44 H16        -2.7500    2.2266    0.2183 H         1 <0>         0.1199
     45 H17         0.3648    0.1924   -0.5666 H         1 <0>         0.2090
     46 H18        -2.0529    4.6912   -0.5279 H         1 <0>         0.1243
     47 H19        -0.7471    6.7637   -0.7378 H         1 <0>         0.1303
     48 H20         3.5594    4.4466   -2.0769 H         1 <0>         0.0731
     49 H21         3.7239    5.3998   -0.5827 H         1 <0>         0.0758
     50 H22         3.6815    3.6221   -0.5042 H         1 <0>         0.0674
     51 H23         2.0172    7.2960   -2.0526 H         1 <0>         0.0748
     52 H24         1.4076    7.8305   -0.4680 H         1 <0>         0.0703
     53 H25         2.9155    6.8902   -0.5705 H         1 <0>         0.0738
@<TRIPOS>BOND
     1    1    2 1
     2    1   29 1
     3    1   30 1
     4    1   31 1
     5    2    7 ar
     6    2    3 ar
     7    3    4 ar
     8    3   32 1
     9    4    5 ar
    10    4   33 1
    11    5    6 ar
    12    5   34 1
    13    6    7 ar
    14    6   35 1
    15    7    8 1
    16    8    9 1
    17    8   36 1
    18    8   37 1
    19    9   10 1
    20    9   11 am
    21   10   38 1
    22   10   39 1
    23   10   40 1
    24   11   12 2
    25   11   13 1
    26   13   14 1
    27   13   41 1
    28   13   42 1
    29   14   15 1
    30   15   16 2
    31   15   17 1
    32   17   18 1
    33   17   43 1
    34   17   44 1
    35   18   22 1
    36   18   19 2
    37   19   20 1
    38   19   45 1
    39   20   21 1
    40   21   26 ar
    41   21   22 ar
    42   22   23 ar
    43   23   24 ar
    44   23   46 1
    45   24   25 ar
    46   24   47 1
    47   25   26 ar
    48   25   28 1
    49   26   27 1
    50   27   48 1
    51   27   49 1
    52   27   50 1
    53   28   51 1
    54   28   52 1
    55   28   53 1
@<TRIPOS>MOLECULE
ZINC08232481
   43    46     0     0     0
SMALL
USER_CHARGES
1,2-diphenyl-2-[1-(2-thienylmethyl)tetrazol-5-yl]sulfanyl-ethanone
@<TRIPOS>ATOM
      1 C1         -6.5964    2.3472   -2.2729 C.ar      1 <0>        -0.1039
      2 C2         -5.8436    2.2900   -3.4308 C.ar      1 <0>        -0.1192
      3 C3         -4.8982    1.2944   -3.5921 C.ar      1 <0>        -0.0659
      4 C4         -4.7051    0.3566   -2.5950 C.ar      1 <0>        -0.0963
      5 C5         -5.4612    0.4110   -1.4391 C.ar      1 <0>        -0.0969
      6 C6         -6.4036    1.4092   -1.2760 C.ar      1 <0>        -0.1217
      7 C7         -3.6744   -0.7287   -2.7708 C.3       1 <0>        -0.0757
      8 H1         -3.2263   -0.6222   -3.6584 H         1 <0>         0.1229
      9 C8         -4.3473   -2.0756   -2.7060 C.2       1 <0>         0.4264
     10 O1         -4.3871   -2.6837   -1.6577 O.2       1 <0>        -0.4286
     11 C9         -4.9559   -2.6530   -3.9152 C.ar      1 <0>        -0.1647
     12 C10        -4.9171   -1.9522   -5.1248 C.ar      1 <0>        -0.0674
     13 C11        -5.4863   -2.5016   -6.2542 C.ar      1 <0>        -0.1302
     14 C12        -6.1029   -3.7391   -6.1908 C.ar      1 <0>        -0.0799
     15 C13        -6.1496   -4.4367   -4.9963 C.ar      1 <0>        -0.1316
     16 C14        -5.5813   -3.9027   -3.8592 C.ar      1 <0>        -0.0540
     17 S1         -2.4395   -0.6072   -1.4531 S.3       1 <0>         0.0877
     18 C15        -1.7243    0.9542   -1.8470 C.2       1 <0>         0.2112
     19 N1         -2.0666    1.7415   -2.8437 N.2       1 <0>        -0.3231
     20 N2         -1.3414    2.8014   -2.8491 N.2       1 <0>        -0.0286
     21 N3         -0.5013    2.7744   -1.8718 N.2       1 <0>        -0.0705
     22 N4         -0.7213    1.5711   -1.1789 N.pl3     1 <0>        -0.3596
     23 C16        -0.0127    1.0858    0.0080 C.3       1 <0>         0.2110
     24 C17        -0.7181    1.5718    1.2479 C.2       1 <0>        -0.2061
     25 C18        -1.7138    0.9792    1.9512 C.2       1 <0>        -0.1103
     26 C19        -2.2142    1.6161    3.0713 C.2       1 <0>        -0.1664
     27 C20        -1.6944    2.8145    3.4333 C.2       1 <0>        -0.1538
     28 S2         -0.4537    3.0738    2.1760 S.3       1 <0>         0.0758
     29 H2         -7.3350    3.1251   -2.1469 H         1 <0>         0.1240
     30 H3         -5.9943    3.0228   -4.2097 H         1 <0>         0.1270
     31 H4         -4.3103    1.2494   -4.4969 H         1 <0>         0.1281
     32 H5         -5.3134   -0.3242   -0.6620 H         1 <0>         0.1264
     33 H6         -6.9915    1.4541   -0.3712 H         1 <0>         0.1248
     34 H7         -4.4396   -0.9848   -5.1750 H         1 <0>         0.1315
     35 H8         -5.4542   -1.9632   -7.1899 H         1 <0>         0.1329
     36 H9         -6.5502   -4.1624   -7.0779 H         1 <0>         0.1307
     37 H10        -6.6329   -5.4016   -4.9547 H         1 <0>         0.1328
     38 H11        -5.6192   -4.4479   -2.9276 H         1 <0>         0.1364
     39 H12         0.0021   -0.0041    0.0020 H         1 <0>         0.1271
     40 H13         1.0099    1.4631    0.0003 H         1 <0>         0.1276
     41 H14        -2.1105    0.0238    1.6409 H         1 <0>         0.1392
     42 H15        -3.0072    1.1655    3.6496 H         1 <0>         0.1402
     43 H16        -1.9593    3.4465    4.2680 H         1 <0>         0.1906
@<TRIPOS>BOND
     1    1    6 ar
     2    1    2 ar
     3    1   29 1
     4    2    3 ar
     5    2   30 1
     6    3    4 ar
     7    3   31 1
     8    4    5 ar
     9    4    7 1
    10    5    6 ar
    11    5   32 1
    12    6   33 1
    13    7    8 1
    14    7    9 1
    15    7   17 1
    16    9   10 2
    17    9   11 1
    18   11   16 ar
    19   11   12 ar
    20   12   13 ar
    21   12   34 1
    22   13   14 ar
    23   13   35 1
    24   14   15 ar
    25   14   36 1
    26   15   16 ar
    27   15   37 1
    28   16   38 1
    29   17   18 1
    30   18   22 1
    31   18   19 2
    32   19   20 1
    33   20   21 2
    34   21   22 1
    35   22   23 1
    36   23   24 1
    37   23   39 1
    38   23   40 1
    39   24   28 1
    40   24   25 2
    41   25   26 1
    42   25   41 1
    43   26   27 2
    44   26   42 1
    45   27   28 1
    46   27   43 1
@<TRIPOS>MOLECULE
ZINC22988467
   42    45     0     0     0
SMALL
USER_CHARGES
4-[5-[2-(2-chlorophenoxy)ethylsulfanyl]-4-cyclopropyl-1,2,4-triazol-3-yl]pyridine
@<TRIPOS>ATOM
      1 C1         -0.8344   10.3399    3.0521 C.ar      1 <0>        -0.0743
      2 C2         -0.0227   11.3991    3.4146 C.ar      1 <0>        -0.1437
      3 C3          1.3520   11.2806    3.3286 C.ar      1 <0>        -0.0721
      4 C4          1.9185   10.1021    2.8796 C.ar      1 <0>        -0.0684
      5 C5          1.1053    9.0377    2.5153 C.ar      1 <0>         0.1387
      6 C6         -0.2738    9.1620    2.5974 C.ar      1 <0>        -0.1986
      7 O1          1.6592    7.8777    2.0735 O.3       1 <0>        -0.2952
      8 C7          0.7615    6.8249    1.7161 C.3       1 <0>         0.0734
      9 C8          1.5626    5.6091    1.2462 C.3       1 <0>        -0.1187
     10 S1          0.4255    4.2756    0.7934 S.3       1 <0>         0.0324
     11 C9          1.5825    3.0396    0.3051 C.2       1 <0>         0.1543
     12 N1          2.8930    3.1534    0.3067 N.2       1 <0>        -0.2814
     13 N2          3.4308    2.0627   -0.1089 N.2       1 <0>        -0.2554
     14 C10         2.4980    1.1844   -0.3958 C.2       1 <0>         0.2133
     15 N3          1.2858    1.7858   -0.1446 N.pl3     1 <0>        -0.4471
     16 C11        -0.0456    1.1997   -0.3178 C.3       1 <0>        -0.0437
     17 C12        -1.1084    2.0534   -1.0124 C.3       1 <0>        -0.1111
     18 C13        -0.4879    0.8596   -1.7424 C.3       1 <0>        -0.1077
     19 C14         2.7096   -0.1894   -0.8973 C.ar      1 <0>         0.0318
     20 C15         1.6937   -1.1498   -0.8160 C.ar      1 <0>        -0.1665
     21 C16         1.9331   -2.4185   -1.3002 C.ar      1 <0>         0.1072
     22 N4          3.1021   -2.7344   -1.8249 N.ar      1 <0>        -0.4757
     23 C17         4.0877   -1.8616   -1.9166 C.ar      1 <0>         0.1085
     24 C18         3.9337   -0.5690   -1.4618 C.ar      1 <0>        -0.1312
     25 Cl1         3.6447    9.9536    2.7711 Cl        1 <0>        -0.0528
     26 H1         -1.9080   10.4353    3.1200 H         1 <0>         0.1333
     27 H2         -0.4634   12.3206    3.7652 H         1 <0>         0.1353
     28 H3          1.9839   12.1094    3.6120 H         1 <0>         0.1413
     29 H4         -0.9088    8.3370    2.3099 H         1 <0>         0.1366
     30 H5          0.1542    6.5482    2.5905 H         1 <0>         0.0776
     31 H6          0.1017    7.1653    0.9044 H         1 <0>         0.0777
     32 H7          2.1699    5.8858    0.3718 H         1 <0>         0.1137
     33 H8          2.2223    5.2686    2.0579 H         1 <0>         0.1137
     34 H9          0.0396    0.6601    0.6370 H         1 <0>         0.1528
     35 H10        -2.0410    2.0234   -0.4299 H         1 <0>         0.1292
     36 H11        -0.7545    3.0924   -1.0846 H         1 <0>         0.1183
     37 H12         0.3788    0.9122   -2.4178 H         1 <0>         0.1103
     38 H13        -0.9078   -0.1569   -1.7632 H         1 <0>         0.1269
     39 H14         0.7361   -0.8996   -0.3837 H         1 <0>         0.1389
     40 H15         1.1546   -3.1650   -1.2457 H         1 <0>         0.1633
     41 H16         5.0279   -2.1640   -2.3535 H         1 <0>         0.1664
     42 H17         4.7446    0.1400   -1.5400 H         1 <0>         0.1488
@<TRIPOS>BOND
     1    1    6 ar
     2    1    2 ar
     3    1   26 1
     4    2    3 ar
     5    2   27 1
     6    3    4 ar
     7    3   28 1
     8    4    5 ar
     9    4   25 1
    10    5    6 ar
    11    5    7 1
    12    6   29 1
    13    7    8 1
    14    8    9 1
    15    8   30 1
    16    8   31 1
    17    9   10 1
    18    9   32 1
    19    9   33 1
    20   10   11 1
    21   11   15 1
    22   11   12 2
    23   12   13 1
    24   13   14 2
    25   14   15 1
    26   14   19 1
    27   15   16 1
    28   16   18 1
    29   16   17 1
    30   16   34 1
    31   17   18 1
    32   17   35 1
    33   17   36 1
    34   18   37 1
    35   18   38 1
    36   19   24 ar
    37   19   20 ar
    38   20   21 ar
    39   20   39 1
    40   21   22 ar
    41   21   40 1
    42   22   23 ar
    43   23   24 ar
    44   23   41 1
    45   24   42 1
@<TRIPOS>MOLECULE
ZINC39991100
   49    51     0     0     0
SMALL
USER_CHARGES

@<TRIPOS>ATOM
      1 C1          0.3781    1.4645   -0.1717 C.3       1 <0>        -0.1522
      2 C2          0.5275   -0.0580   -0.1487 C.3       1 <0>         0.0612
      3 O1          1.0693   -0.4645    1.1095 O.3       1 <0>        -0.3460
      4 C3          1.2647   -1.7854    1.2935 C.2       1 <0>         0.5029
      5 O2          0.9828   -2.5698    0.4103 O.2       1 <0>        -0.4390
      6 C4          1.8209   -2.2781    2.5676 C.2       1 <0>        -0.0785
      7 C5          2.0826   -3.5715    2.9074 C.2       1 <0>        -0.1355
      8 C6          2.6300   -3.6009    4.2728 C.2       1 <0>         0.1746
      9 N1          2.7110   -2.4143    4.7663 N.2       1 <0>        -0.4464
     10 C7          2.2267   -1.4529    3.7692 C.3       1 <0>         0.0546
     11 H1          3.0205   -0.7572    3.4973 H         1 <0>         0.1427
     12 C8          1.0194   -0.6901    4.3182 C.3       1 <0>        -0.1232
     13 C9          3.0415   -4.8557    4.9989 C.3       1 <0>        -0.1117
     14 C10         1.8546   -4.7489    2.0474 C.2       1 <0>         0.3992
     15 O3          1.3024   -4.6199    0.9804 O.2       1 <0>        -0.3675
     16 C11         2.3105   -6.1121    2.4999 C.3       1 <0>        -0.1623
     17 S1          2.0560   -7.3099    1.1616 S.3       1 <0>        -0.0053
     18 C12         2.6296   -8.8327    1.8375 C.ar      1 <0>         0.1478
     19 C13         2.5816   -9.9931    1.0504 C.ar      1 <0>        -0.1574
     20 C14         3.0219  -11.1768    1.5596 C.ar      1 <0>        -0.0048
     21 C15         3.5178  -11.1937    2.8799 C.ar      1 <0>        -0.1083
     22 C16         3.9881  -12.3789    3.4656 C.ar      1 <0>        -0.0912
     23 C17         4.4609  -12.3578    4.7429 C.ar      1 <0>        -0.1209
     24 C18         4.4838  -11.1741    5.4764 C.ar      1 <0>        -0.0935
     25 C19         4.0352  -10.0065    4.9387 C.ar      1 <0>        -0.0994
     26 C20         3.5401   -9.9889    3.6236 C.ar      1 <0>         0.1468
     27 N2          3.0987   -8.8541    3.0690 N.ar      1 <0>        -0.4923
     28 C21         2.9800  -12.4366    0.7337 C.3       1 <0>        -0.1222
     29 H2          1.3546    1.9276   -0.0300 H         1 <0>         0.0678
     30 H3         -0.0352    1.7746   -1.1314 H         1 <0>         0.0826
     31 H4         -0.2915    1.7761    0.6300 H         1 <0>         0.0679
     32 H5         -0.4491   -0.5210   -0.2904 H         1 <0>         0.0712
     33 H6          1.1971   -0.3695   -0.9504 H         1 <0>         0.0708
     34 H7          0.2468   -1.3987    4.6166 H         1 <0>         0.0613
     35 H8          1.3247   -0.1002    5.1825 H         1 <0>         0.0804
     36 H9          0.6266   -0.0278    3.5468 H         1 <0>         0.0808
     37 H10         4.0612   -5.1198    4.7186 H         1 <0>         0.0930
     38 H11         2.9928   -4.6856    6.0745 H         1 <0>         0.0907
     39 H12         2.3682   -5.6691    4.7289 H         1 <0>         0.0888
     40 H13         3.3690   -6.0744    2.7573 H         1 <0>         0.1295
     41 H14         1.7346   -6.4162    3.3740 H         1 <0>         0.1339
     42 H15         2.1958   -9.9477    0.0427 H         1 <0>         0.1425
     43 H16         3.9750  -13.3030    2.9067 H         1 <0>         0.1322
     44 H17         4.8223  -13.2708    5.1927 H         1 <0>         0.1287
     45 H18         4.8630  -11.1825    6.4876 H         1 <0>         0.1311
     46 H19         4.0594   -9.0972    5.5209 H         1 <0>         0.1354
     47 H20         3.9143  -12.5407    0.1820 H         1 <0>         0.0838
     48 H21         2.8476  -13.2970    1.3898 H         1 <0>         0.0772
     49 H22         2.1477  -12.3835    0.0319 H         1 <0>         0.0784
@<TRIPOS>BOND
     1    1    2 1
     2    1   29 1
     3    1   30 1
     4    1   31 1
     5    2    3 1
     6    2   32 1
     7    2   33 1
     8    3    4 1
     9    4    5 2
    10    4    6 1
    11    6   10 1
    12    6    7 2
    13    7    8 1
    14    7   14 1
    15    8    9 2
    16    8   13 1
    17    9   10 1
    18   10   11 1
    19   10   12 1
    20   12   34 1
    21   12   35 1
    22   12   36 1
    23   13   37 1
    24   13   38 1
    25   13   39 1
    26   14   15 2
    27   14   16 1
    28   16   17 1
    29   16   40 1
    30   16   41 1
    31   17   18 1
    32   18   27 ar
    33   18   19 ar
    34   19   20 ar
    35   19   42 1
    36   20   21 ar
    37   20   28 1
    38   21   26 ar
    39   21   22 ar
    40   22   23 ar
    41   22   43 1
    42   23   24 ar
    43   23   44 1
    44   24   25 ar
    45   24   45 1
    46   25   26 ar
    47   25   46 1
    48   26   27 ar
    49   28   47 1
    50   28   48 1
    51   28   49 1
@<TRIPOS>MOLECULE
ZINC44024813
   49    50     0     0     0
SMALL
USER_CHARGES

@<TRIPOS>ATOM
      1 C1         -1.9816    1.1699    1.6378 C.3       1 <0>        -0.1507
      2 C2         -2.4656    0.1435    0.6117 C.3       1 <0>         0.0750
      3 C3         -3.2846    0.8508   -0.4700 C.3       1 <0>        -0.1826
      4 O1         -1.3386   -0.4987    0.0122 O.3       1 <0>        -0.3060
      5 C4         -1.5381   -1.7377   -0.5046 C.ar      1 <0>         0.1569
      6 C5         -0.4598   -2.4653   -0.9960 C.ar      1 <0>        -0.1591
      7 C6         -0.6566   -3.7221   -1.5211 C.ar      1 <0>        -0.0441
      8 C7         -1.9457   -4.2682   -1.5596 C.ar      1 <0>        -0.1351
      9 C8         -3.0281   -3.5312   -1.0630 C.ar      1 <0>        -0.0486
     10 C9         -2.8194   -2.2772   -0.5356 C.ar      1 <0>        -0.2176
     11 C10        -2.1617   -5.6088   -2.1193 C.2       1 <0>         0.0253
     12 C11        -3.4078   -6.1339   -2.1553 C.2       1 <0>        -0.2662
     13 C12        -3.6163   -7.4278   -2.6955 C.2       1 <0>         0.4225
     14 O2         -2.6739   -8.0665   -3.1271 O.2       1 <0>        -0.4544
     15 C13        -4.9790   -8.0021   -2.7349 C.ar      1 <0>        -0.1024
     16 C14        -6.0627   -7.2701   -2.2462 C.ar      1 <0>        -0.0973
     17 C15        -7.3309   -7.8113   -2.2863 C.ar      1 <0>        -0.0319
     18 C16        -7.5302   -9.0767   -2.8095 C.ar      1 <0>        -0.6560
     19 C17        -6.4604   -9.8078   -3.2951 C.ar      1 <0>        -0.0308
     20 C18        -5.1879   -9.2760   -3.2662 C.ar      1 <0>        -0.0856
     21 S1         -9.1534   -9.7605   -2.8569 S.o2      1 <0>         2.6910
     22 O3         -8.9984  -11.1726   -2.8919 O.2       1 <0>        -0.9482
     23 O4         -9.9016   -9.1011   -1.8447 O.2       1 <0>        -0.9499
     24 N1         -9.8272   -9.3223   -4.3048 N.pl3     1 <0>        -1.0042
     25 C19        -9.6651  -10.1837   -5.4787 C.3       1 <0>         0.0901
     26 C20       -10.5853   -8.0733   -4.4118 C.3       1 <0>         0.0799
     27 H1         -2.8413    1.6597    2.0951 H         1 <0>         0.0796
     28 H2         -1.3982    0.6660    2.4084 H         1 <0>         0.0663
     29 H3         -1.3605    1.9152    1.1411 H         1 <0>         0.0688
     30 H4         -3.0867   -0.6019    1.1084 H         1 <0>         0.0759
     31 H5         -3.6294    0.1196   -1.2010 H         1 <0>         0.0633
     32 H6         -4.1442    1.3406   -0.0127 H         1 <0>         0.0751
     33 H7         -2.6634    1.5962   -0.9667 H         1 <0>         0.0696
     34 H8          0.5338   -2.0432   -0.9658 H         1 <0>         0.1373
     35 H9          0.1815   -4.2861   -1.9031 H         1 <0>         0.1377
     36 H10        -4.0242   -3.9477   -1.0903 H         1 <0>         0.1314
     37 H11        -3.6527   -1.7097   -0.1486 H         1 <0>         0.1358
     38 H12        -1.3257   -6.1753   -2.5021 H         1 <0>         0.1376
     39 H13        -4.2438   -5.5674   -1.7725 H         1 <0>         0.1339
     40 H14        -5.9084   -6.2825   -1.8373 H         1 <0>         0.1420
     41 H15        -8.1700   -7.2462   -1.9082 H         1 <0>         0.1469
     42 H16        -6.6226  -10.7952   -3.7015 H         1 <0>         0.1468
     43 H17        -4.3544   -9.8458   -3.6497 H         1 <0>         0.1453
     44 H18       -10.4865  -10.8989   -5.5207 H         1 <0>         0.0643
     45 H19        -9.6691   -9.5724   -6.3812 H         1 <0>         0.0763
     46 H20        -8.7191  -10.7205   -5.4076 H         1 <0>         0.0726
     47 H21        -9.9117   -7.2619   -4.6875 H         1 <0>         0.0570
     48 H22       -11.3563   -8.1805   -5.1748 H         1 <0>         0.0808
     49 H23       -11.0519   -7.8482   -3.4528 H         1 <0>         0.0854
@<TRIPOS>BOND
     1    1    2 1
     2    1   27 1
     3    1   28 1
     4    1   29 1
     5    2    3 1
     6    2    4 1
     7    2   30 1
     8    3   31 1
     9    3   32 1
    10    3   33 1
    11    4    5 1
    12    5   10 ar
    13    5    6 ar
    14    6    7 ar
    15    6   34 1
    16    7    8 ar
    17    7   35 1
    18    8    9 ar
    19    8   11 1
    20    9   10 ar
    21    9   36 1
    22   10   37 1
    23   11   12 2
    24   11   38 1
    25   12   13 1
    26   12   39 1
    27   13   14 2
    28   13   15 1
    29   15   20 ar
    30   15   16 ar
    31   16   17 ar
    32   16   40 1
    33   17   18 ar
    34   17   41 1
    35   18   19 ar
    36   18   21 1
    37   19   20 ar
    38   19   42 1
    39   20   43 1
    40   21   22 2
    41   21   23 2
    42   21   24 1
    43   24   25 1
    44   24   26 1
    45   25   44 1
    46   25   45 1
    47   25   46 1
    48   26   47 1
    49   26   48 1
    50   26   49 1
@<TRIPOS>MOLECULE
ZINC02721856
   41    43     0     0     0
SMALL
USER_CHARGES
5-butylsulfanyl-4-(4-chlorophenyl)sulfonyl-2-(2-furyl)oxazole
@<TRIPOS>ATOM
      1 C1          2.8275    4.3987   -0.0013 C.3       1 <0>        -0.1546
      2 C2          1.3921    3.8692    0.0095 C.3       1 <0>        -0.1178
      3 C3          1.4129    2.3393    0.0011 C.3       1 <0>        -0.1079
      4 C4         -0.0225    1.8097    0.0120 C.3       1 <0>        -0.1395
      5 S1          0.0021   -0.0041    0.0020 S.3       1 <0>         0.0685
      6 C5         -1.7016   -0.4536    0.0159 C.2       1 <0>         0.0629
      7 C6         -2.2017   -1.7137    0.0084 C.2       1 <0>        -0.5402
      8 N1         -3.5396   -1.6234    0.0266 N.2       1 <0>        -0.3693
      9 C7         -3.8769   -0.3530    0.0364 C.2       1 <0>         0.2722
     10 O1         -2.7530    0.3918    0.0300 O.3       1 <0>        -0.1727
     11 C8         -5.2501    0.1687    0.0518 C.2       1 <0>         0.0430
     12 C9         -5.6070    1.4849    0.0625 C.2       1 <0>        -0.1427
     13 C10        -7.0141    1.5230    0.0754 C.2       1 <0>        -0.2155
     14 C11        -7.4451    0.2455    0.0721 C.2       1 <0>         0.0018
     15 O2         -6.3778   -0.5699    0.0519 O.3       1 <0>        -0.1447
     16 S2         -1.2617   -3.2039   -0.0166 S.o2      1 <0>         2.6110
     17 O3         -2.1042   -4.2062   -0.5687 O.2       1 <0>        -0.9060
     18 O4          0.0024   -2.8773   -0.5775 O.2       1 <0>        -0.9073
     19 C12        -0.9661   -3.6615    1.6591 C.ar      1 <0>        -0.6601
     20 C13         0.1654   -3.2067    2.3102 C.ar      1 <0>        -0.0055
     21 C14         0.3950   -3.5607    3.6264 C.ar      1 <0>        -0.1312
     22 C15        -0.5021   -4.3796    4.2887 C.ar      1 <0>         0.0209
     23 C16        -1.6315   -4.8391    3.6348 C.ar      1 <0>        -0.1307
     24 C17        -1.8629   -4.4798    2.3204 C.ar      1 <0>         0.0005
     25 Cl1        -0.2112   -4.8300    5.9398 Cl        1 <0>        -0.0500
     26 H1          3.3547    4.0377    0.8817 H         1 <0>         0.0568
     27 H2          3.3377    4.0472   -0.8981 H         1 <0>         0.0574
     28 H3          2.8127    5.4886    0.0047 H         1 <0>         0.0589
     29 H4          0.8649    4.2302   -0.8735 H         1 <0>         0.0668
     30 H5          0.8819    4.2207    0.9063 H         1 <0>         0.0662
     31 H6          1.9400    1.9782    0.8842 H         1 <0>         0.0787
     32 H7          1.9230    1.9878   -0.8957 H         1 <0>         0.0805
     33 H8         -0.5497    2.1708   -0.8711 H         1 <0>         0.1016
     34 H9         -0.5327    2.1613    0.9088 H         1 <0>         0.0998
     35 H10        -4.9392    2.3338    0.0607 H         1 <0>         0.1597
     36 H11        -7.6320    2.4086    0.0863 H         1 <0>         0.1626
     37 H12        -8.4779   -0.0701    0.0802 H         1 <0>         0.2187
     38 H13         0.8679   -2.5710    1.7917 H         1 <0>         0.1546
     39 H14         1.2767   -3.2017    4.1363 H         1 <0>         0.1483
     40 H15        -2.3323   -5.4781    4.1514 H         1 <0>         0.1484
     41 H16        -2.7446   -4.8381    1.8099 H         1 <0>         0.1559
@<TRIPOS>BOND
     1    1    2 1
     2    1   26 1
     3    1   27 1
     4    1   28 1
     5    2    3 1
     6    2   29 1
     7    2   30 1
     8    3    4 1
     9    3   31 1
    10    3   32 1
    11    4    5 1
    12    4   33 1
    13    4   34 1
    14    5    6 1
    15    6   10 1
    16    6    7 2
    17    7    8 1
    18    7   16 1
    19    8    9 2
    20    9   10 1
    21    9   11 1
    22   11   15 1
    23   11   12 2
    24   12   13 1
    25   12   35 1
    26   13   14 2
    27   13   36 1
    28   14   15 1
    29   14   37 1
    30   16   17 2
    31   16   18 2
    32   16   19 1
    33   19   24 ar
    34   19   20 ar
    35   20   21 ar
    36   20   38 1
    37   21   22 ar
    38   21   39 1
    39   22   23 ar
    40   22   25 1
    41   23   24 ar
    42   23   40 1
    43   24   41 1
@<TRIPOS>MOLECULE
ZINC08917236
   54    57     0     0     0
SMALL
USER_CHARGES
ethyl-(4-pentoxyphenyl)-BLAHdione
@<TRIPOS>ATOM
      1 C1         -0.0604    1.1126   -4.9886 C.3       1 <0>        -0.1546
      2 C2         -0.7766    1.6061   -3.7298 C.3       1 <0>        -0.1242
      3 C3         -0.0366    1.0992   -2.4903 C.3       1 <0>        -0.1177
      4 C4         -0.7527    1.5927   -1.2315 C.3       1 <0>        -0.1198
      5 C5         -0.0127    1.0858    0.0080 C.3       1 <0>         0.0582
      6 O1         -0.6816    1.5467    1.1837 O.3       1 <0>        -0.3131
      7 C6         -0.1488    1.1821    2.3796 C.ar      1 <0>         0.1447
      8 C7          0.9910    0.3923    2.4206 C.ar      1 <0>        -0.2133
      9 C8          1.5337    0.0275    3.6375 C.ar      1 <0>        -0.0521
     10 C9          0.9358    0.4401    4.8140 C.ar      1 <0>        -0.1420
     11 C10        -0.2035    1.2226    4.7758 C.ar      1 <0>        -0.0442
     12 C11        -0.7471    1.5945    3.5614 C.ar      1 <0>        -0.1518
     13 C12         1.5266    0.0359    6.1401 C.3       1 <0>         0.2354
     14 H1          0.7770    0.1225    6.9267 H         1 <0>         0.1212
     15 C13         2.7185    0.8993    6.4619 C.2       1 <0>        -0.2514
     16 C14         2.8737    2.3431    6.6615 C.2       1 <0>         0.4490
     17 O2          1.9275    3.1059    6.5769 O.2       1 <0>        -0.4386
     18 C15         4.2337    2.8266    6.9704 C.ar      1 <0>        -0.2210
     19 C16         4.4947    4.1796    7.1803 C.ar      1 <0>        -0.0259
     20 C17         5.7690    4.5862    7.4648 C.ar      1 <0>        -0.1469
     21 C18         6.7992    3.6596    7.5454 C.ar      1 <0>        -0.0490
     22 C19         6.5596    2.3184    7.3399 C.ar      1 <0>        -0.1381
     23 C20         5.2704    1.8808    7.0494 C.ar      1 <0>         0.1571
     24 O3          5.0193    0.5747    6.8477 O.3       1 <0>        -0.2000
     25 C21         3.7966    0.0842    6.5640 C.2       1 <0>         0.0972
     26 C22         3.3525   -1.3106    6.3171 C.2       1 <0>         0.5732
     27 O4          4.0784   -2.2846    6.3356 O.2       1 <0>        -0.4871
     28 N1          2.0315   -1.3408    6.0702 N.am      1 <0>        -0.5887
     29 C23         1.2358   -2.5368    5.7827 C.3       1 <0>         0.1376
     30 C24         1.2176   -2.7867    4.2734 C.3       1 <0>        -0.1855
     31 H2         -0.5876    1.4737   -5.8717 H         1 <0>         0.0557
     32 H3          0.9622    1.4899   -4.9964 H         1 <0>         0.0542
     33 H4         -0.0456    0.0228   -4.9946 H         1 <0>         0.0542
     34 H5         -1.7991    1.2288   -3.7221 H         1 <0>         0.0635
     35 H6         -0.7913    2.6960   -3.7239 H         1 <0>         0.0635
     36 H7          0.9860    1.4765   -2.4981 H         1 <0>         0.0652
     37 H8         -0.0218    0.0093   -2.4963 H         1 <0>         0.0653
     38 H9         -1.7753    1.2154   -1.2238 H         1 <0>         0.0748
     39 H10        -0.7675    2.6825   -1.2255 H         1 <0>         0.0747
     40 H11         0.0021   -0.0041    0.0020 H         1 <0>         0.0630
     41 H12         1.0099    1.4631    0.0003 H         1 <0>         0.0625
     42 H13         1.4560    0.0663    1.5020 H         1 <0>         0.1295
     43 H14         2.4231   -0.5843    3.6700 H         1 <0>         0.1205
     44 H15        -0.6687    1.5437    5.6961 H         1 <0>         0.1350
     45 H16        -1.6372    2.2054    3.5321 H         1 <0>         0.1352
     46 H17         3.6950    4.9028    7.1183 H         1 <0>         0.1450
     47 H18         5.9748    5.6338    7.6281 H         1 <0>         0.1400
     48 H19         7.8010    3.9940    7.7712 H         1 <0>         0.1450
     49 H20         7.3703    1.6078    7.4055 H         1 <0>         0.1481
     50 H21         1.6763   -3.3963    6.2880 H         1 <0>         0.0935
     51 H22         0.2163   -2.3892    6.1389 H         1 <0>         0.0932
     52 H23         0.6256   -3.6765    4.0595 H         1 <0>         0.0748
     53 H24         0.7771   -1.9272    3.7681 H         1 <0>         0.0738
     54 H25         2.2371   -2.9343    3.9172 H         1 <0>         0.0612
@<TRIPOS>BOND
     1    1    2 1
     2    1   31 1
     3    1   32 1
     4    1   33 1
     5    2    3 1
     6    2   34 1
     7    2   35 1
     8    3    4 1
     9    3   36 1
    10    3   37 1
    11    4    5 1
    12    4   38 1
    13    4   39 1
    14    5    6 1
    15    5   40 1
    16    5   41 1
    17    6    7 1
    18    7   12 ar
    19    7    8 ar
    20    8    9 ar
    21    8   42 1
    22    9   10 ar
    23    9   43 1
    24   10   11 ar
    25   10   13 1
    26   11   12 ar
    27   11   44 1
    28   12   45 1
    29   13   14 1
    30   13   28 1
    31   13   15 1
    32   15   25 2
    33   15   16 1
    34   16   17 2
    35   16   18 1
    36   18   23 ar
    37   18   19 ar
    38   19   20 ar
    39   19   46 1
    40   20   21 ar
    41   20   47 1
    42   21   22 ar
    43   21   48 1
    44   22   23 ar
    45   22   49 1
    46   23   24 1
    47   24   25 1
    48   25   26 1
    49   26   27 2
    50   26   28 am
    51   28   29 1
    52   29   30 1
    53   29   50 1
    54   29   51 1
    55   30   52 1
    56   30   53 1
    57   30   54 1
@<TRIPOS>MOLECULE
ZINC21636141
   49    51     0     0     0
SMALL
USER_CHARGES
N-methyl-3-[3-(p-tolyl)-1,2,4-oxadiazol-5-yl]-N-[[4-(trifluoromethyl)phenyl]methyl]propanamide
@<TRIPOS>ATOM
      1 C1         -1.3768   -9.8291  -10.6344 C.3       1 <0>        -0.1226
      2 C2         -1.3855   -8.6428   -9.7050 C.ar      1 <0>        -0.0632
      3 C3         -1.4098   -7.3609  -10.2240 C.ar      1 <0>        -0.1232
      4 C4         -1.4175   -6.2709   -9.3774 C.ar      1 <0>        -0.0780
      5 C5         -1.4011   -6.4636   -7.9976 C.ar      1 <0>        -0.0343
      6 C6         -1.3718   -7.7570   -7.4802 C.ar      1 <0>        -0.0694
      7 C7         -1.3688   -8.8399   -8.3360 C.ar      1 <0>        -0.1249
      8 C8         -1.4087   -5.2953   -7.0822 C.2       1 <0>         0.2162
      9 N1         -1.3948   -5.3344   -5.7307 N.2       1 <0>        -0.4708
     10 C9         -1.4080   -4.0836   -5.3425 C.2       1 <0>         0.1854
     11 O1         -1.4350   -3.3293   -6.4457 O.3       1 <0>         0.0841
     12 N2         -1.4293   -4.0355   -7.4318 N.2       1 <0>        -0.3750
     13 C10        -1.4007   -3.5880   -3.9193 C.3       1 <0>        -0.0146
     14 C11         0.0441   -3.4006   -3.4519 C.3       1 <0>        -0.1399
     15 C12         0.0514   -2.9050   -2.0288 C.2       1 <0>         0.5223
     16 O2         -0.9958   -2.7199   -1.4457 O.2       1 <0>        -0.5302
     17 N3          1.2218   -2.6675   -1.4040 N.am      1 <0>        -0.6115
     18 C13         2.4867   -2.8911   -2.1083 C.3       1 <0>         0.0714
     19 C14         1.2289   -2.1857   -0.0205 C.3       1 <0>         0.1476
     20 C15         1.2084   -0.6789   -0.0132 C.ar      1 <0>        -0.0785
     21 C16         0.0021   -0.0041    0.0020 C.ar      1 <0>        -0.0962
     22 C17        -0.0167    1.3781    0.0096 C.ar      1 <0>        -0.0717
     23 C18         1.1709    2.0855    0.0021 C.ar      1 <0>        -0.1780
     24 C19         2.3773    1.4107   -0.0145 C.ar      1 <0>        -0.0733
     25 C20         2.3961    0.0285   -0.0212 C.ar      1 <0>        -0.1074
     26 C21         1.1505    3.5924    0.0099 C.3       1 <0>         0.5071
     27 F1          1.1565    4.0520    1.3313 F         1 <0>        -0.1756
     28 F2          2.2801    4.0775   -0.6577 F         1 <0>        -0.1768
     29 F3         -0.0041    4.0464   -0.6365 F         1 <0>        -0.1761
     30 H1         -1.3926   -9.4783  -11.6768 H         1 <0>         0.0688
     31 H2         -2.2637  -10.4511  -10.4434 H         1 <0>         0.0748
     32 H3         -0.4677  -10.4238  -10.4613 H         1 <0>         0.0747
     33 H4         -1.4225   -7.2127  -11.2937 H         1 <0>         0.1310
     34 H5         -1.4358   -5.2704   -9.7837 H         1 <0>         0.1306
     35 H6         -1.3545   -7.9119   -6.4116 H         1 <0>         0.1355
     36 H7         -1.3498   -9.8429   -7.9360 H         1 <0>         0.1314
     37 H8         -1.9319   -2.6264   -3.8632 H         1 <0>         0.1144
     38 H9         -1.9029   -4.3226   -3.2726 H         1 <0>         0.1224
     39 H10         0.5753   -4.3622   -3.5080 H         1 <0>         0.1070
     40 H11         0.5463   -2.6660   -4.0986 H         1 <0>         0.1047
     41 H12         3.3262   -2.6446   -1.4415 H         1 <0>         0.0822
     42 H13         2.5274   -2.2502   -3.0014 H         1 <0>         0.0657
     43 H14         2.5563   -3.9464   -2.4108 H         1 <0>         0.0682
     44 H15         0.3410   -2.5670    0.5051 H         1 <0>         0.1015
     45 H16         2.1370   -2.5425    0.4874 H         1 <0>         0.0944
     46 H17        -0.9258   -0.5567    0.0083 H         1 <0>         0.1421
     47 H18        -0.9592    1.9054    0.0170 H         1 <0>         0.1372
     48 H19         3.3052    1.9634   -0.0205 H         1 <0>         0.1368
     49 H20         3.3386   -0.4987   -0.0324 H         1 <0>         0.1337
@<TRIPOS>BOND
     1    1    2 1
     2    1   30 1
     3    1   31 1
     4    1   32 1
     5    2    7 ar
     6    2    3 ar
     7    3    4 ar
     8    3   33 1
     9    4    5 ar
    10    4   34 1
    11    5    6 ar
    12    5    8 1
    13    6    7 ar
    14    6   35 1
    15    7   36 1
    16    8   12 2
    17    8    9 1
    18    9   10 2
    19   10   11 1
    20   10   13 1
    21   11   12 1
    22   13   14 1
    23   13   37 1
    24   13   38 1
    25   14   15 1
    26   14   39 1
    27   14   40 1
    28   15   16 2
    29   15   17 am
    30   17   18 1
    31   17   19 1
    32   18   41 1
    33   18   42 1
    34   18   43 1
    35   19   20 1
    36   19   44 1
    37   19   45 1
    38   20   25 ar
    39   20   21 ar
    40   21   22 ar
    41   21   46 1
    42   22   23 ar
    43   22   47 1
    44   23   24 ar
    45   23   26 1
    46   24   25 ar
    47   24   48 1
    48   25   49 1
    49   26   27 1
    50   26   28 1
    51   26   29 1
@<TRIPOS>MOLECULE
ZINC38758117
   49    52     0     0     0
SMALL
USER_CHARGES

@<TRIPOS>ATOM
      1 C1         -0.0187    1.5258    0.0104 C.3       1 <0>        -0.1350
      2 C2          0.0021   -0.0041    0.0020 C.3       1 <0>        -0.1582
      3 S1         -1.6997   -0.6320    0.0149 S.3       1 <0>        -0.0111
      4 C3         -1.5080   -2.3834    0.0037 C.ar      1 <0>        -0.0346
      5 C4         -0.2371   -2.9476   -0.0057 C.ar      1 <0>        -0.1493
      6 C5         -0.0900   -4.3187   -0.0140 C.ar      1 <0>        -0.0574
      7 C6         -1.2037   -5.1450   -0.0131 C.ar      1 <0>        -0.1431
      8 C7         -2.4708   -4.6059   -0.0044 C.ar      1 <0>        -0.0386
      9 C8         -2.6382   -3.2179    0.0100 C.ar      1 <0>        -0.1225
     10 C9         -3.9900   -2.6346    0.0255 C.2       1 <0>         0.5090
     11 O1         -4.1309   -1.4275    0.0329 O.2       1 <0>        -0.4727
     12 O2         -5.0712   -3.4393    0.0315 O.3       1 <0>        -0.3417
     13 C10        -6.3518   -2.8052    0.0466 C.3       1 <0>         0.1431
     14 C11        -7.4324   -3.8556    0.0513 C.2       1 <0>         0.1065
     15 C12        -7.2291   -5.2429    0.0481 C.2       1 <0>        -0.2612
     16 C13        -8.4493   -5.8466    0.0548 C.2       1 <0>         0.1313
     17 O3         -9.3849   -4.8786    0.0620 O.3       1 <0>        -0.0673
     18 N1         -8.7168   -3.6301    0.0649 N.2       1 <0>        -0.3061
     19 C14        -8.7014   -7.3025    0.0539 C.ar      1 <0>        -0.0792
     20 C15        -7.6330   -8.2019    0.0514 C.ar      1 <0>        -0.0416
     21 C16        -7.8693   -9.5572    0.0552 C.ar      1 <0>        -0.1403
     22 C17        -9.1755  -10.0466    0.0606 C.ar      1 <0>         0.1342
     23 C18       -10.2355   -9.1461    0.0551 C.ar      1 <0>        -0.1755
     24 C19       -10.0105   -7.7904    0.0614 C.ar      1 <0>        -0.0321
     25 C20       -11.5127   -9.9640    0.0375 C.3       1 <0>        -0.1077
     26 C21       -10.9907  -11.3637   -0.3643 C.3       1 <0>         0.0757
     27 H1        -11.5454  -12.1460    0.1537 H         1 <0>         0.1208
     28 O4         -9.6228  -11.3321    0.0768 O.3       1 <0>        -0.2944
     29 C22       -11.0712  -11.5576   -1.8798 C.3       1 <0>        -0.1732
     30 H2          1.0039    1.9031    0.0027 H         1 <0>         0.0738
     31 H3         -0.5459    1.8868   -0.8726 H         1 <0>         0.0660
     32 H4         -0.5289    1.8773    0.9072 H         1 <0>         0.0660
     33 H5          0.5123   -0.3556   -0.8948 H         1 <0>         0.0861
     34 H6          0.5293   -0.3651    0.8851 H         1 <0>         0.0861
     35 H7          0.6356   -2.3114   -0.0068 H         1 <0>         0.1336
     36 H8          0.8992   -4.7520   -0.0216 H         1 <0>         0.1341
     37 H9         -1.0765   -6.2175   -0.0197 H         1 <0>         0.1359
     38 H10        -3.3343   -5.2546   -0.0041 H         1 <0>         0.1431
     39 H11        -6.4411   -2.1880    0.9405 H         1 <0>         0.1036
     40 H12        -6.4576   -2.1791   -0.8393 H         1 <0>         0.1036
     41 H13        -6.2726   -5.7444    0.0409 H         1 <0>         0.1664
     42 H14        -6.6182   -7.8323    0.0460 H         1 <0>         0.1425
     43 H15        -7.0381  -10.2468    0.0538 H         1 <0>         0.1399
     44 H16       -10.8440   -7.1036    0.0683 H         1 <0>         0.1363
     45 H17       -11.9731   -9.9887    1.0253 H         1 <0>         0.0958
     46 H18       -12.2108   -9.5802   -0.7065 H         1 <0>         0.0972
     47 H19       -10.4644  -10.8001   -2.3758 H         1 <0>         0.0633
     48 H20       -10.6990  -12.5486   -2.1395 H         1 <0>         0.0708
     49 H21       -12.1076  -11.4624   -2.2037 H         1 <0>         0.0785
@<TRIPOS>BOND
     1    1    2 1
     2    1   30 1
     3    1   31 1
     4    1   32 1
     5    2    3 1
     6    2   33 1
     7    2   34 1
     8    3    4 1
     9    4    9 ar
    10    4    5 ar
    11    5    6 ar
    12    5   35 1
    13    6    7 ar
    14    6   36 1
    15    7    8 ar
    16    7   37 1
    17    8    9 ar
    18    8   38 1
    19    9   10 1
    20   10   11 2
    21   10   12 1
    22   12   13 1
    23   13   14 1
    24   13   39 1
    25   13   40 1
    26   14   18 2
    27   14   15 1
    28   15   16 2
    29   15   41 1
    30   16   17 1
    31   16   19 1
    32   17   18 1
    33   19   24 ar
    34   19   20 ar
    35   20   21 ar
    36   20   42 1
    37   21   22 ar
    38   21   43 1
    39   22   28 1
    40   22   23 ar
    41   23   24 ar
    42   23   25 1
    43   24   44 1
    44   25   26 1
    45   25   45 1
    46   25   46 1
    47   26   27 1
    48   26   28 1
    49   26   29 1
    50   29   47 1
    51   29   48 1
    52   29   49 1
@<TRIPOS>MOLECULE
ZINC41505102
   44    46     0     0     0
SMALL
USER_CHARGES

@<TRIPOS>ATOM
      1 C1         -0.0817    1.5094    0.0164 C.3       1 <0>        -0.1292
      2 C2         -0.0722    0.0025    0.0060 C.ar      1 <0>         0.0684
      3 C3         -0.0952   -0.6738   -1.1812 C.ar      1 <0>        -0.1836
      4 C4         -0.0865   -2.0658   -1.1931 C.ar      1 <0>         0.2098
      5 C5         -0.0547   -2.7808   -0.0065 C.ar      1 <0>        -0.2409
      6 C6         -0.0311   -2.1087    1.2090 C.ar      1 <0>         0.1821
      7 C7         -0.0343   -0.7043    1.2082 C.ar      1 <0>        -0.2999
      8 C8          0.0015   -0.2879    2.6219 C.2       1 <0>         0.4194
      9 O1          0.0059    0.8472    3.0653 O.2       1 <0>        -0.4169
     10 C9          0.0301   -1.5502    3.3775 C.2       1 <0>        -0.0352
     11 C10         0.0677   -1.6756    4.7276 C.2       1 <0>        -0.0199
     12 C11        -0.0197   -3.0063    5.3446 C.ar      1 <0>        -0.0774
     13 C12        -0.1170   -3.1318    6.7353 C.ar      1 <0>        -0.0782
     14 C13        -0.1990   -4.3832    7.3066 C.ar      1 <0>        -0.1151
     15 C14        -0.1848   -5.5155    6.5081 C.ar      1 <0>        -0.0211
     16 C15        -0.0887   -5.3994    5.1306 C.ar      1 <0>        -0.1142
     17 C16        -0.0118   -4.1547    4.5442 C.ar      1 <0>        -0.0845
     18 Cl1        -0.2874   -7.0877    7.2371 Cl        1 <0>        -0.0631
     19 O2          0.0005   -2.5638    2.4805 O.3       1 <0>        -0.2088
     20 O3         -0.1099   -2.7285   -2.3774 O.3       1 <0>        -0.2800
     21 C17        -0.0995   -4.1564   -2.3221 C.3       1 <0>         0.0631
     22 C18        -0.1285   -4.7136   -3.7220 C.2       1 <0>         0.4645
     23 O4         -0.1555   -3.9647   -4.6699 O.2       1 <0>        -0.4782
     24 O5         -0.1246   -6.0418   -3.9160 O.3       1 <0>        -0.3435
     25 C19        -0.1532   -6.4999   -5.2693 C.3       1 <0>         0.0952
     26 C20        -0.1440   -8.0067   -5.2898 C.2       1 <0>        -0.1647
     27 C21        -0.9608   -8.6560   -6.0819 C.2       1 <0>        -0.1616
     28 H1          0.9433    1.8794   -0.0096 H         1 <0>         0.0865
     29 H2         -0.6223    1.8754   -0.8565 H         1 <0>         0.0794
     30 H3         -0.5729    1.8634    0.9228 H         1 <0>         0.0832
     31 H4         -0.1204   -0.1272   -2.1123 H         1 <0>         0.1498
     32 H5         -0.0486   -3.8606   -0.0266 H         1 <0>         0.1476
     33 H6          0.1617   -0.7973    5.3490 H         1 <0>         0.1685
     34 H7         -0.1275   -2.2501    7.3590 H         1 <0>         0.1407
     35 H8         -0.2742   -4.4816    8.3795 H         1 <0>         0.1396
     36 H9         -0.0779   -6.2865    4.5147 H         1 <0>         0.1381
     37 H10         0.0586   -4.0655    3.4702 H         1 <0>         0.1532
     38 H11         0.8048   -4.4938   -1.8155 H         1 <0>         0.1156
     39 H12        -0.9747   -4.5052   -1.7740 H         1 <0>         0.1155
     40 H13        -1.0572   -6.1354   -5.7572 H         1 <0>         0.0775
     41 H14         0.7223   -6.1240   -5.7987 H         1 <0>         0.0823
     42 H15         0.5359   -8.5513   -4.6515 H         1 <0>         0.1230
     43 H16        -0.9542   -9.7358   -6.0967 H         1 <0>         0.1116
     44 H17        -1.6407   -8.1113   -6.7203 H         1 <0>         0.1015
@<TRIPOS>BOND
     1    1    2 1
     2    1   28 1
     3    1   29 1
     4    1   30 1
     5    2    7 ar
     6    2    3 ar
     7    3    4 ar
     8    3   31 1
     9    4    5 ar
    10    4   20 1
    11    5    6 ar
    12    5   32 1
    13    6   19 1
    14    6    7 ar
    15    7    8 1
    16    8    9 2
    17    8   10 1
    18   10   11 2
    19   10   19 1
    20   11   12 1
    21   11   33 1
    22   12   17 ar
    23   12   13 ar
    24   13   14 ar
    25   13   34 1
    26   14   15 ar
    27   14   35 1
    28   15   16 ar
    29   15   18 1
    30   16   17 ar
    31   16   36 1
    32   17   37 1
    33   20   21 1
    34   21   22 1
    35   21   38 1
    36   21   39 1
    37   22   23 2
    38   22   24 1
    39   24   25 1
    40   25   26 1
    41   25   40 1
    42   25   41 1
    43   26   27 2
    44   26   42 1
    45   27   43 1
    46   27   44 1
@<TRIPOS>MOLECULE
ZINC05311479
   50    52     0     0     0
SMALL
USER_CHARGES
1-(1-ethyl-2,5-dimethyl-pyrrol-3-yl)-2-[(4-ethyl-5-phenyl-1,2,4-triazol-3-yl)sulfanyl]ethanone
@<TRIPOS>ATOM
      1 C1          0.8011   -0.2346   -0.6367 C.3       1 <0>        -0.1707
      2 C2          0.0551    0.5086    0.4733 C.3       1 <0>         0.0895
      3 N1          0.6528    0.1781    1.7694 N.pl3     1 <0>        -0.4310
      4 C3          1.6757    0.8677    2.3535 C.2       1 <0>         0.0101
      5 C4          1.9762    0.2968    3.5320 C.2       1 <0>        -0.1494
      6 C5          1.0600   -0.8411    3.6859 C.2       1 <0>        -0.2675
      7 C6          0.2671   -0.8440    2.5538 C.2       1 <0>         0.1212
      8 C7         -0.8361   -1.8245    2.2495 C.3       1 <0>        -0.0981
      9 C8          0.9958   -1.7767    4.8108 C.2       1 <0>         0.4484
     10 O1          0.1830   -2.6776    4.8050 O.2       1 <0>        -0.4602
     11 C9          1.9393   -1.6206    5.9755 C.3       1 <0>        -0.1450
     12 S1          1.6139   -2.9190    7.1938 S.3       1 <0>         0.0563
     13 C10         2.8215   -2.5077    8.4092 C.2       1 <0>         0.1497
     14 N2          3.6766   -1.5111    8.3527 N.2       1 <0>        -0.2895
     15 N3          4.4126   -1.5009    9.4061 N.2       1 <0>        -0.2670
     16 C11         4.0729   -2.4898   10.1997 C.2       1 <0>         0.2249
     17 N4          3.0394   -3.1615    9.5882 N.pl3     1 <0>        -0.4548
     18 C12         2.3242   -4.3354   10.0948 C.3       1 <0>         0.0891
     19 C13         2.9729   -5.6058    9.5416 C.3       1 <0>        -0.1782
     20 C14         4.6817   -2.8164   11.5067 C.ar      1 <0>        -0.0176
     21 C15         5.4293   -1.8568   12.1910 C.ar      1 <0>        -0.0746
     22 C16         5.9896   -2.1662   13.4132 C.ar      1 <0>        -0.1156
     23 C17         5.8219   -3.4282   13.9550 C.ar      1 <0>        -0.1047
     24 C18         5.0868   -4.3858   13.2791 C.ar      1 <0>        -0.1160
     25 C19         4.5161   -4.0875   12.0590 C.ar      1 <0>        -0.1203
     26 C20         2.3590    2.0774    1.7696 C.3       1 <0>        -0.0873
     27 H1          0.7291   -1.3088   -0.4667 H         1 <0>         0.0643
     28 H2          1.8493    0.0644   -0.6332 H         1 <0>         0.0648
     29 H3          0.3564    0.0113   -1.6010 H         1 <0>         0.0783
     30 H4          0.1271    1.5828    0.3033 H         1 <0>         0.0946
     31 H5         -0.9931    0.2096    0.4698 H         1 <0>         0.0938
     32 H6          2.7395    0.6120    4.2280 H         1 <0>         0.1501
     33 H7         -0.4258   -2.6762    1.7069 H         1 <0>         0.0810
     34 H8         -1.2835   -2.1689    3.1818 H         1 <0>         0.0994
     35 H9         -1.5970   -1.3375    1.6395 H         1 <0>         0.0667
     36 H10         2.8827   -1.6955    5.6525 H         1 <0>         0.1144
     37 H11         1.7894   -0.6442    6.4362 H         1 <0>         0.1295
     38 H12         2.3716   -4.3477   11.1837 H         1 <0>         0.1082
     39 H13         1.2825   -4.2913    9.7769 H         1 <0>         0.1031
     40 H14         4.0146   -5.6499    9.8595 H         1 <0>         0.0684
     41 H15         2.4408   -6.4792    9.9186 H         1 <0>         0.0879
     42 H16         2.9255   -5.5934    8.4527 H         1 <0>         0.0735
     43 H17         5.5650   -0.8729   11.7670 H         1 <0>         0.1366
     44 H18         6.5646   -1.4232   13.9459 H         1 <0>         0.1321
     45 H19         6.2666   -3.6668   14.9098 H         1 <0>         0.1284
     46 H20         4.9597   -5.3691   13.7074 H         1 <0>         0.1300
     47 H21         3.9421   -4.8358   11.5326 H         1 <0>         0.1325
     48 H22         1.8437    2.9798    2.0985 H         1 <0>         0.0728
     49 H23         3.3952    2.1074    2.1065 H         1 <0>         0.0833
     50 H24         2.3323    2.0199    0.6814 H         1 <0>         0.0644
@<TRIPOS>BOND
     1    1    2 1
     2    1   27 1
     3    1   28 1
     4    1   29 1
     5    2    3 1
     6    2   30 1
     7    2   31 1
     8    3    7 1
     9    3    4 1
    10    4    5 2
    11    4   26 1
    12    5    6 1
    13    5   32 1
    14    6    7 2
    15    6    9 1
    16    7    8 1
    17    8   33 1
    18    8   34 1
    19    8   35 1
    20    9   10 2
    21    9   11 1
    22   11   12 1
    23   11   36 1
    24   11   37 1
    25   12   13 1
    26   13   17 1
    27   13   14 2
    28   14   15 1
    29   15   16 2
    30   16   17 1
    31   16   20 1
    32   17   18 1
    33   18   19 1
    34   18   38 1
    35   18   39 1
    36   19   40 1
    37   19   41 1
    38   19   42 1
    39   20   25 ar
    40   20   21 ar
    41   21   22 ar
    42   21   43 1
    43   22   23 ar
    44   22   44 1
    45   23   24 ar
    46   23   45 1
    47   24   25 ar
    48   24   46 1
    49   25   47 1
    50   26   48 1
    51   26   49 1
    52   26   50 1
@<TRIPOS>MOLECULE
ZINC21623405
   47    50     0     0     0
SMALL
USER_CHARGES
2-[[5-cyclopropyl-4-(2-furylmethyl)-1,2,4-triazol-3-yl]sulfanyl]-1-(2,5-dimethylphenyl)ethanone
@<TRIPOS>ATOM
      1 C1         -8.3857   -5.5331   -1.9459 C.3       1 <0>        -0.1187
      2 C2         -8.2194   -4.9263   -3.3153 C.ar      1 <0>        -0.1048
      3 C3         -9.1606   -5.1749   -4.2994 C.ar      1 <0>        -0.0765
      4 C4         -9.0166   -4.6227   -5.5601 C.ar      1 <0>        -0.1347
      5 C5         -7.9356   -3.8145   -5.8435 C.ar      1 <0>        -0.0155
      6 C6         -6.9780   -3.5626   -4.8562 C.ar      1 <0>        -0.1709
      7 C7         -7.1304   -4.1248   -3.5845 C.ar      1 <0>        -0.0663
      8 C8         -5.8188   -2.7054   -5.1518 C.2       1 <0>         0.4245
      9 O1         -5.6307   -2.3086   -6.2820 O.2       1 <0>        -0.4267
     10 C9         -4.8656   -2.3208   -4.0497 C.3       1 <0>        -0.1697
     11 S1         -3.5550   -1.2705   -4.7248 S.3       1 <0>         0.0559
     12 C10        -2.6136   -0.9792   -3.2641 C.2       1 <0>         0.1447
     13 N1         -2.8733   -1.4410   -2.0629 N.2       1 <0>        -0.2903
     14 N2         -1.9765   -1.0358   -1.2362 N.2       1 <0>        -0.2888
     15 C11        -1.1039   -0.2900   -1.8527 C.2       1 <0>         0.2029
     16 N3         -1.4761   -0.2302   -3.1673 N.pl3     1 <0>        -0.4622
     17 C12        -0.7955    0.4884   -4.2475 C.3       1 <0>         0.1882
     18 C13         0.2207   -0.4188   -4.8920 C.2       1 <0>        -0.0597
     19 C14        -0.0065   -1.2418   -5.9314 C.2       1 <0>        -0.1641
     20 C15         1.2147   -1.8977   -6.2091 C.2       1 <0>        -0.2163
     21 C16         2.1131   -1.4425   -5.3175 C.2       1 <0>        -0.0196
     22 O2          1.5055   -0.5469   -4.5223 O.3       1 <0>        -0.1684
     23 C17         0.0967    0.3776   -1.2332 C.3       1 <0>        -0.1689
     24 C18         1.1387   -0.5216   -0.5650 C.3       1 <0>        -0.0975
     25 C19         0.2151    0.3459    0.2926 C.3       1 <0>        -0.0962
     26 C20        -7.7839   -3.2091   -7.2152 C.3       1 <0>        -0.1844
     27 H1         -9.3054   -6.1361   -1.9213 H         1 <0>         0.0682
     28 H2         -8.4524   -4.7317   -1.1954 H         1 <0>         0.0732
     29 H3         -7.5206   -6.1745   -1.7215 H         1 <0>         0.0728
     30 H4        -10.0116   -5.8033   -4.0823 H         1 <0>         0.1290
     31 H5         -9.7550   -4.8215   -6.3228 H         1 <0>         0.1305
     32 H6         -6.3973   -3.9312   -2.8155 H         1 <0>         0.1340
     33 H7         -5.4109   -1.7705   -3.2688 H         1 <0>         0.1359
     34 H8         -4.4211   -3.2287   -3.6159 H         1 <0>         0.1353
     35 H9         -1.5335    0.8049   -4.9993 H         1 <0>         0.1310
     36 H10        -0.2882    1.3736   -3.8363 H         1 <0>         0.1190
     37 H11        -0.9419   -1.3743   -6.4549 H         1 <0>         0.1545
     38 H12         1.3913   -2.6276   -6.9854 H         1 <0>         0.1541
     39 H13         3.1477   -1.7455   -5.2525 H         1 <0>         0.2082
     40 H14         0.1164    1.1612   -2.0050 H         1 <0>         0.1227
     41 H15         0.9478   -1.5698   -0.8385 H         1 <0>         0.1021
     42 H16         2.1444   -0.2317   -0.9035 H         1 <0>         0.1115
     43 H17         0.4570    1.3532    0.6626 H         1 <0>         0.1123
     44 H18        -0.7395    0.0150    0.7277 H         1 <0>         0.1169
     45 H19        -6.8680   -2.6008   -7.2483 H         1 <0>         0.1331
     46 H20        -8.6545   -2.5732   -7.4336 H         1 <0>         0.0685
     47 H21        -7.7185   -4.0114   -7.9649 H         1 <0>         0.0713
@<TRIPOS>BOND
     1    1    2 1
     2    1   27 1
     3    1   28 1
     4    1   29 1
     5    2    7 ar
     6    2    3 ar
     7    3    4 ar
     8    3   30 1
     9    4    5 ar
    10    4   31 1
    11    5    6 ar
    12    5   26 1
    13    6    7 ar
    14    6    8 1
    15    7   32 1
    16    8    9 2
    17    8   10 1
    18   10   11 1
    19   10   33 1
    20   10   34 1
    21   11   12 1
    22   12   16 1
    23   12   13 2
    24   13   14 1
    25   14   15 2
    26   15   16 1
    27   15   23 1
    28   16   17 1
    29   17   18 1
    30   17   35 1
    31   17   36 1
    32   18   22 1
    33   18   19 2
    34   19   20 1
    35   19   37 1
    36   20   21 2
    37   20   38 1
    38   21   22 1
    39   21   39 1
    40   23   25 1
    41   23   24 1
    42   23   40 1
    43   24   25 1
    44   24   41 1
    45   24   42 1
    46   25   43 1
    47   25   44 1
    48   26   45 1
    49   26   46 1
    50   26   47 1
@<TRIPOS>MOLECULE
ZINC56484736
   46    47     0     0     0
SMALL
USER_CHARGES

@<TRIPOS>ATOM
      1 C1         -0.0187    1.5258    0.0104 C.3       1 <0>        -0.1513
      2 C2          0.0021   -0.0041    0.0020 C.3       1 <0>        -0.1382
      3 C3          0.7182   -0.4975   -1.2568 C.3       1 <0>         0.1116
      4 N1          0.7381   -1.9623   -1.2648 N.am      1 <0>        -0.6113
      5 C4         -0.3566   -2.7063   -1.8928 C.3       1 <0>         0.2054
      6 C5         -0.0410   -2.9396   -3.3115 C.1       1 <0>         0.1774
      7 N2          0.2027   -3.1196   -4.4064 N.1       1 <0>        -0.4057
      8 C6          1.7635   -2.6255   -0.6946 C.2       1 <0>         0.5611
      9 O1          2.6733   -2.0072   -0.1727 O.2       1 <0>        -0.5298
     10 C7          1.7827   -4.0427   -0.7024 C.2       1 <0>        -0.2377
     11 C8          2.8108   -4.7077   -0.1306 C.2       1 <0>         0.0516
     12 C9          2.8307   -6.1760   -0.1387 C.2       1 <0>        -0.2142
     13 C10         3.9094   -7.0000   -0.5372 C.2       1 <0>         0.1117
     14 N3          3.5400   -8.2433   -0.4015 N.2       1 <0>        -0.2678
     15 N4          2.2279   -8.2791    0.0828 N.pl3     1 <0>        -0.3445
     16 C11         1.7989   -7.0154    0.2482 C.2       1 <0>         0.1478
     17 Cl1         0.2396   -6.5266    0.8341 Cl        1 <0>         0.0080
     18 C12         1.4537   -9.4897    0.3679 C.3       1 <0>         0.1669
     19 C13         1.6797   -9.9052    1.7988 C.ar      1 <0>        -0.1250
     20 C14         2.7151  -10.7654    2.1134 C.ar      1 <0>        -0.0873
     21 C15         2.9224  -11.1465    3.4259 C.ar      1 <0>        -0.1219
     22 C16         2.0947  -10.6670    4.4238 C.ar      1 <0>        -0.1044
     23 C17         1.0600   -9.8060    4.1093 C.ar      1 <0>        -0.1215
     24 C18         0.8553   -9.4215    2.7974 C.ar      1 <0>        -0.0974
     25 C19         5.2508   -6.5242   -1.0325 C.3       1 <0>        -0.0792
     26 H1          1.0039    1.9031    0.0027 H         1 <0>         0.0575
     27 H2         -0.5459    1.8868   -0.8726 H         1 <0>         0.0554
     28 H3         -0.5289    1.8773    0.9072 H         1 <0>         0.0586
     29 H4          0.5293   -0.3651    0.8851 H         1 <0>         0.0694
     30 H5         -1.0205   -0.3814    0.0098 H         1 <0>         0.0647
     31 H6          0.1910   -0.1364   -2.1398 H         1 <0>         0.0786
     32 H7          1.7408   -0.1202   -1.2645 H         1 <0>         0.0900
     33 H8         -0.4829   -3.6633   -1.3865 H         1 <0>         0.1257
     34 H9         -1.2787   -2.1301   -1.8157 H         1 <0>         0.1287
     35 H10         0.9757   -4.5912   -1.1653 H         1 <0>         0.1251
     36 H11         3.6178   -4.1592    0.3323 H         1 <0>         0.1431
     37 H12         0.3939   -9.2887    0.2110 H         1 <0>         0.1063
     38 H13         1.7740  -10.2910   -0.2980 H         1 <0>         0.1142
     39 H14         3.3617  -11.1401    1.3337 H         1 <0>         0.1265
     40 H15         3.7308  -11.8191    3.6716 H         1 <0>         0.1267
     41 H16         2.2563  -10.9653    5.4492 H         1 <0>         0.1260
     42 H17         0.4131   -9.4316    4.8890 H         1 <0>         0.1266
     43 H18         0.0491   -8.7459    2.5522 H         1 <0>         0.1220
     44 H19         5.9302   -6.4096   -0.1879 H         1 <0>         0.0862
     45 H20         5.6597   -7.2538   -1.7315 H         1 <0>         0.0808
     46 H21         5.1326   -5.5649   -1.5365 H         1 <0>         0.0836
@<TRIPOS>BOND
     1    1    2 1
     2    1   26 1
     3    1   27 1
     4    1   28 1
     5    2    3 1
     6    2   29 1
     7    2   30 1
     8    3    4 1
     9    3   31 1
    10    3   32 1
    11    4    5 1
    12    4    8 am
    13    5    6 1
    14    5   33 1
    15    5   34 1
    16    6    7 3
    17    8    9 2
    18    8   10 1
    19   10   11 2
    20   10   35 1
    21   11   12 1
    22   11   36 1
    23   12   16 2
    24   12   13 1
    25   13   14 2
    26   13   25 1
    27   14   15 1
    28   15   16 1
    29   15   18 1
    30   16   17 1
    31   18   19 1
    32   18   37 1
    33   18   38 1
    34   19   24 ar
    35   19   20 ar
    36   20   21 ar
    37   20   39 1
    38   21   22 ar
    39   21   40 1
    40   22   23 ar
    41   22   41 1
    42   23   24 ar
    43   23   42 1
    44   24   43 1
    45   25   44 1
    46   25   45 1
    47   25   46 1
@<TRIPOS>MOLECULE
ZINC60488639
   38    39     0     0     0
SMALL
USER_CHARGES

@<TRIPOS>ATOM
      1 C1         -0.0184    1.5028    0.0103 C.3       1 <0>        -0.1100
      2 C2          0.0021   -0.0041    0.0020 C.ar      1 <0>        -0.0934
      3 C3          0.0057   -0.6888   -1.1980 C.ar      1 <0>        -0.0735
      4 C4          0.0244   -2.0721   -1.2062 C.ar      1 <0>        -0.0631
      5 C5          0.0395   -2.7727   -0.0128 C.ar      1 <0>        -0.0741
      6 C6          0.0359   -2.0917    1.1889 C.ar      1 <0>        -0.1920
      7 C7          0.0230   -0.7044    1.1990 C.ar      1 <0>         0.1292
      8 O1          0.0255   -0.0325    2.3806 O.3       1 <0>        -0.2880
      9 C8          0.0475   -0.8185    3.5738 C.3       1 <0>         0.0731
     10 C9          0.0471    0.0917    4.7749 C.2       1 <0>         0.4617
     11 O2          0.0297    1.2904    4.6245 O.2       1 <0>        -0.4618
     12 O3          0.0659   -0.4293    6.0118 O.3       1 <0>        -0.3054
     13 C10         0.0643    0.4921    7.1040 C.3       1 <0>         0.1499
     14 C11         0.7942   -0.1149    8.2744 C.2       1 <0>         0.1621
     15 N1          0.6529   -1.3377    8.7077 N.2       1 <0>        -0.4337
     16 C12         1.4584   -1.5290    9.7630 C.2       1 <0>        -0.0233
     17 C13         2.1242   -0.3811    9.9924 C.2       1 <0>        -0.0241
     18 N2          1.7071    0.5147    9.0451 N.pl3     1 <0>        -0.4411
     19 C14         2.1637    1.8988    8.8967 C.3       1 <0>         0.0584
     20 C15        -1.3786    0.8019    7.5078 C.3       1 <0>         0.4465
     21 F1         -2.0187   -0.3805    7.8943 F         1 <0>        -0.1554
     22 F2         -1.3802    1.7040    8.5771 F         1 <0>        -0.1695
     23 F3         -2.0561    1.3654    6.4213 F         1 <0>        -0.1680
     24 Cl1         0.0284   -2.9301   -2.7153 Cl        1 <0>        -0.0655
     25 H1          1.0042    1.8801    0.0026 H         1 <0>         0.0740
     26 H2         -0.5455    1.8639   -0.8728 H         1 <0>         0.0705
     27 H3         -0.5286    1.8543    0.9071 H         1 <0>         0.0767
     28 H4         -0.0064   -0.1437   -2.1304 H         1 <0>         0.1431
     29 H5          0.0538   -3.8525   -0.0212 H         1 <0>         0.1395
     30 H6          0.0473   -2.6389    2.1200 H         1 <0>         0.1407
     31 H7         -0.8339   -1.4592    3.6031 H         1 <0>         0.1173
     32 H8          0.9459   -1.4356    3.5859 H         1 <0>         0.1163
     33 H9          0.5631    1.4134    6.8029 H         1 <0>         0.1377
     34 H10         1.5560   -2.4433   10.3294 H         1 <0>         0.1821
     35 H11         2.8506   -0.2028   10.7714 H         1 <0>         0.1877
     36 H12         1.5284    2.5565    9.4899 H         1 <0>         0.0891
     37 H13         3.1943    1.9805    9.2423 H         1 <0>         0.0992
     38 H14         2.1083    2.1892    7.8476 H         1 <0>         0.0873
@<TRIPOS>BOND
     1    1    2 1
     2    1   25 1
     3    1   26 1
     4    1   27 1
     5    2    7 ar
     6    2    3 ar
     7    3    4 ar
     8    3   28 1
     9    4    5 ar
    10    4   24 1
    11    5    6 ar
    12    5   29 1
    13    6    7 ar
    14    6   30 1
    15    7    8 1
    16    8    9 1
    17    9   10 1
    18    9   31 1
    19    9   32 1
    20   10   11 2
    21   10   12 1
    22   12   13 1
    23   13   14 1
    24   13   20 1
    25   13   33 1
    26   14   18 1
    27   14   15 2
    28   15   16 1
    29   16   17 2
    30   16   34 1
    31   17   18 1
    32   17   35 1
    33   18   19 1
    34   19   36 1
    35   19   37 1
    36   19   38 1
    37   20   21 1
    38   20   22 1
    39   20   23 1
@<TRIPOS>MOLECULE
ZINC65382105
   52    55     0     0     0
SMALL
USER_CHARGES

@<TRIPOS>ATOM
      1 C1         -0.0184    1.5028    0.0103 C.3       1 <0>        -0.1208
      2 C2          0.0021   -0.0041    0.0020 C.ar      1 <0>        -0.0315
      3 C3          0.0056   -0.6858   -1.2027 C.ar      1 <0>        -0.1564
      4 C4          0.0238   -2.0649   -1.2211 C.ar      1 <0>        -0.0514
      5 C5          0.0392   -2.7767   -0.0202 C.ar      1 <0>        -0.0632
      6 C6          0.0360   -2.0828    1.1967 C.ar      1 <0>         0.1527
      7 C7          0.0228   -0.6979    1.1976 C.ar      1 <0>        -0.2125
      8 O1          0.0509   -2.7654    2.3711 O.3       1 <0>        -0.3058
      9 C8          0.0465   -1.9907    3.5719 C.3       1 <0>         0.0247
     10 C9          0.0582   -4.2528   -0.0327 C.2       1 <0>         0.0489
     11 C10        -1.0371   -5.0971   -0.0401 C.2       1 <0>         0.0575
     12 N1         -0.5734   -6.3613   -0.0515 N.2       1 <0>        -0.4743
     13 C11         0.7300   -6.3485   -0.0515 C.2       1 <0>         0.1894
     14 N2          1.1688   -5.0642   -0.0453 N.pl3     1 <0>        -0.4496
     15 C12         2.5661   -4.6238   -0.0489 C.3       1 <0>         0.1108
     16 C13         3.0222   -4.3627    1.3881 C.3       1 <0>        -0.1529
     17 C14         4.4814   -3.9028    1.3843 C.3       1 <0>         0.1092
     18 N3          4.9181   -3.6528    2.7602 N.pl3     1 <0>        -0.4589
     19 C15         4.8249   -2.4680    3.4394 C.2       1 <0>        -0.0564
     20 C16         5.3397   -2.6802    4.6655 C.2       1 <0>        -0.0273
     21 N4          5.7366   -3.9596    4.7332 N.2       1 <0>        -0.4933
     22 C17         5.4825   -4.5497    3.5973 C.2       1 <0>         0.1831
     23 C18        -2.4601   -4.6860   -0.0356 C.ar      1 <0>         0.0009
     24 C19        -2.8572   -3.5457    0.6626 C.ar      1 <0>        -0.1032
     25 C20        -4.1843   -3.1679    0.6631 C.ar      1 <0>        -0.1218
     26 C21        -5.1203   -3.9178   -0.0265 C.ar      1 <0>        -0.1195
     27 C22        -4.7325   -5.0498   -0.7209 C.ar      1 <0>        -0.1218
     28 C23        -3.4074   -5.4344   -0.7341 C.ar      1 <0>        -0.0946
     29 H1          1.0042    1.8801    0.0026 H         1 <0>         0.0753
     30 H2         -0.5455    1.8639   -0.8728 H         1 <0>         0.0722
     31 H3         -0.5286    1.8543    0.9071 H         1 <0>         0.0689
     32 H4         -0.0062   -0.1356   -2.1320 H         1 <0>         0.1287
     33 H5          0.0259   -2.5933   -2.1630 H         1 <0>         0.1300
     34 H6          0.0247   -0.1592    2.1337 H         1 <0>         0.1321
     35 H7         -0.8516   -1.3739    3.6030 H         1 <0>         0.0585
     36 H8          0.0596   -2.6572    4.4343 H         1 <0>         0.1016
     37 H9          0.9282   -1.3502    3.5942 H         1 <0>         0.0562
     38 H10         1.3625   -7.2239   -0.0595 H         1 <0>         0.2076
     39 H11         3.1903   -5.3992   -0.4930 H         1 <0>         0.1012
     40 H12         2.6566   -3.7068   -0.6311 H         1 <0>         0.0932
     41 H13         2.3980   -3.5873    1.8322 H         1 <0>         0.0850
     42 H14         2.9317   -5.2797    1.9703 H         1 <0>         0.0809
     43 H15         5.1056   -4.6782    0.9402 H         1 <0>         0.0989
     44 H16         4.5719   -2.9858    0.8021 H         1 <0>         0.0945
     45 H17         4.4171   -1.5411    3.0639 H         1 <0>         0.1707
     46 H18         5.4192   -1.9484    5.4558 H         1 <0>         0.1692
     47 H19         5.6915   -5.5834    3.3643 H         1 <0>         0.2036
     48 H20        -2.1276   -2.9599    1.2020 H         1 <0>         0.1204
     49 H21        -4.4931   -2.2852    1.2034 H         1 <0>         0.1201
     50 H22        -6.1579   -3.6185   -0.0226 H         1 <0>         0.1209
     51 H23        -5.4678   -5.6314   -1.2571 H         1 <0>         0.1231
     52 H24        -3.1051   -6.3158   -1.2802 H         1 <0>         0.1252
@<TRIPOS>BOND
     1    1    2 1
     2    1   29 1
     3    1   30 1
     4    1   31 1
     5    2    7 ar
     6    2    3 ar
     7    3    4 ar
     8    3   32 1
     9    4    5 ar
    10    4   33 1
    11    5    6 ar
    12    5   10 1
    13    6    7 ar
    14    6    8 1
    15    7   34 1
    16    8    9 1
    17    9   35 1
    18    9   36 1
    19    9   37 1
    20   10   14 1
    21   10   11 2
    22   11   12 1
    23   11   23 1
    24   12   13 2
    25   13   14 1
    26   13   38 1
    27   14   15 1
    28   15   16 1
    29   15   39 1
    30   15   40 1
    31   16   17 1
    32   16   41 1
    33   16   42 1
    34   17   18 1
    35   17   43 1
    36   17   44 1
    37   18   22 1
    38   18   19 1
    39   19   20 2
    40   19   45 1
    41   20   21 1
    42   20   46 1
    43   21   22 2
    44   22   47 1
    45   23   28 ar
    46   23   24 ar
    47   24   25 ar
    48   24   48 1
    49   25   26 ar
    50   25   49 1
    51   26   27 ar
    52   26   50 1
    53   27   28 ar
    54   27   51 1
    55   28   52 1
@<TRIPOS>MOLECULE
ZINC05313409
   47    50     0     0     0
SMALL
USER_CHARGES
2-[[4-benzyl-5-(2-furyl)-1,2,4-triazol-3-yl]sulfanyl]-1-(2,5-dimethyl-3-thienyl)-ethanone
@<TRIPOS>ATOM
      1 C1         -7.9383    4.7355    7.8279 C.3       1 <0>        -0.0729
      2 C2         -7.6558    5.2248    6.4308 C.2       1 <0>        -0.1605
      3 C3         -6.9194    4.6344    5.4711 C.2       1 <0>        -0.1277
      4 C4         -6.8062    5.3269    4.2098 C.2       1 <0>        -0.2228
      5 C5         -7.4749    6.5334    4.0960 C.2       1 <0>        -0.0911
      6 S1         -8.2215    6.7206    5.6471 S.3       1 <0>         0.1257
      7 C6         -7.5383    7.4599    2.9091 C.3       1 <0>        -0.0862
      8 C7         -6.0258    4.7762    3.1008 C.2       1 <0>         0.4346
      9 O1         -5.9539    5.3800    2.0506 O.2       1 <0>        -0.4410
     10 C8         -5.3115    3.4592    3.2632 C.3       1 <0>        -0.1532
     11 S2         -4.4418    3.0514    1.7290 S.3       1 <0>         0.0638
     12 C9         -3.7172    1.5123    2.1880 C.2       1 <0>         0.1564
     13 N1         -3.8363    0.9108    3.3502 N.2       1 <0>        -0.2845
     14 N2         -3.1798   -0.1938    3.3463 N.2       1 <0>        -0.2489
     15 C10        -2.6044   -0.3697    2.1769 C.2       1 <0>         0.2630
     16 N3         -2.9267    0.7221    1.4011 N.pl3     1 <0>        -0.4488
     17 C11        -2.5137    0.9795    0.0193 C.3       1 <0>         0.1453
     18 C12        -1.2190    1.7506    0.0173 C.ar      1 <0>        -0.1252
     19 C13        -0.0126    1.0758    0.0080 C.ar      1 <0>        -0.0927
     20 C14         1.1750    1.7832    0.0004 C.ar      1 <0>        -0.1218
     21 C15         1.1563    3.1654    0.0076 C.ar      1 <0>        -0.1033
     22 C16        -0.0501    3.8402    0.0223 C.ar      1 <0>        -0.1194
     23 C17        -1.2377    3.1328    0.0299 C.ar      1 <0>        -0.0917
     24 C18        -1.7716   -1.5138    1.7746 C.2       1 <0>         0.0391
     25 C19        -1.2178   -2.4344    2.6129 C.2       1 <0>        -0.1326
     26 C20        -0.5092   -3.3441    1.8045 C.2       1 <0>        -0.2090
     27 C21        -0.6556   -2.9365    0.5281 C.2       1 <0>        -0.0165
     28 O2         -1.4184   -1.8309    0.5133 O.3       1 <0>        -0.1758
     29 H1         -8.5752    5.4546    8.3429 H         1 <0>         0.0742
     30 H2         -8.4442    3.7712    7.7798 H         1 <0>         0.0832
     31 H3         -6.9998    4.6267    8.3715 H         1 <0>         0.0833
     32 H4         -6.4312    3.6858    5.6389 H         1 <0>         0.1469
     33 H5         -8.3874    7.1889    2.2817 H         1 <0>         0.0889
     34 H6         -7.6556    8.4867    3.2556 H         1 <0>         0.0773
     35 H7         -6.6178    7.3741    2.3317 H         1 <0>         0.1024
     36 H8         -5.9773    2.7422    3.4697 H         1 <0>         0.1170
     37 H9         -4.5929    3.5338    4.0794 H         1 <0>         0.1326
     38 H10        -3.2837    1.5610   -0.4877 H         1 <0>         0.1102
     39 H11        -2.3729    0.0317   -0.5003 H         1 <0>         0.1146
     40 H12         0.0021   -0.0041    0.0020 H         1 <0>         0.1232
     41 H13         2.1175    1.2560   -0.0115 H         1 <0>         0.1262
     42 H14         2.0841    3.7181    0.0014 H         1 <0>         0.1266
     43 H15        -0.0647    4.9201    0.0276 H         1 <0>         0.1285
     44 H16        -2.1802    3.6600    0.0410 H         1 <0>         0.1280
     45 H17        -1.3069   -2.4623    3.6889 H         1 <0>         0.1619
     46 H18         0.0493   -4.2040    2.1436 H         1 <0>         0.1596
     47 H19        -0.2301   -3.4192   -0.3394 H         1 <0>         0.2129
@<TRIPOS>BOND
     1    1    2 1
     2    1   29 1
     3    1   30 1
     4    1   31 1
     5    2    6 1
     6    2    3 2
     7    3    4 1
     8    3   32 1
     9    4    5 2
    10    4    8 1
    11    5    6 1
    12    5    7 1
    13    7   33 1
    14    7   34 1
    15    7   35 1
    16    8    9 2
    17    8   10 1
    18   10   11 1
    19   10   36 1
    20   10   37 1
    21   11   12 1
    22   12   16 1
    23   12   13 2
    24   13   14 1
    25   14   15 2
    26   15   16 1
    27   15   24 1
    28   16   17 1
    29   17   18 1
    30   17   38 1
    31   17   39 1
    32   18   23 ar
    33   18   19 ar
    34   19   20 ar
    35   19   40 1
    36   20   21 ar
    37   20   41 1
    38   21   22 ar
    39   21   42 1
    40   22   23 ar
    41   22   43 1
    42   23   44 1
    43   24   28 1
    44   24   25 2
    45   25   26 1
    46   25   45 1
    47   26   27 2
    48   26   46 1
    49   27   28 1
    50   27   47 1
@<TRIPOS>MOLECULE
ZINC11120582
   45    48     0     0     0
SMALL
USER_CHARGES
2-[2-(4-fluorophenoxy)ethylsulfanyl]-3-(2-furylmethyl)quinazolin-4-one
@<TRIPOS>ATOM
      1 C1          2.3807    1.4218   -0.0131 C.ar      1 <0>        -0.1376
      2 C2          1.1610    2.0862    0.0022 C.ar      1 <0>        -0.0684
      3 C3         -0.0169    1.3939    0.0097 C.ar      1 <0>        -0.1107
      4 C4          0.0021   -0.0041    0.0020 C.ar      1 <0>         0.1669
      5 C5          1.2453   -0.6766   -0.0135 C.ar      1 <0>        -0.1996
      6 C6          2.4319    0.0552   -0.0209 C.ar      1 <0>        -0.0381
      7 C7          1.2395   -2.1458   -0.0208 C.2       1 <0>         0.5577
      8 O1          2.2777   -2.7813   -0.0341 O.2       1 <0>        -0.4985
      9 N1          0.0366   -2.7659   -0.0122 N.am      1 <0>        -0.5276
     10 C8         -1.1180   -2.0366    0.0027 C.2       1 <0>         0.3717
     11 N2         -1.1361   -0.7266    0.0094 N.2       1 <0>        -0.5239
     12 S1         -2.6551   -2.8978    0.0139 S.3       1 <0>         0.0268
     13 C9         -3.8004   -1.4964    0.0325 C.3       1 <0>        -0.1152
     14 C10        -5.2400   -2.0144    0.0445 C.3       1 <0>         0.0724
     15 O2         -6.1443   -0.9079    0.0592 O.3       1 <0>        -0.3036
     16 C11        -7.4727   -1.1966    0.0712 C.ar      1 <0>         0.1208
     17 C12        -7.8961   -2.5174    0.0631 C.ar      1 <0>        -0.1803
     18 C13        -9.2463   -2.8094    0.0815 C.ar      1 <0>        -0.1118
     19 C14       -10.1768   -1.7842    0.0961 C.ar      1 <0>         0.0621
     20 C15        -9.7555   -0.4653    0.0980 C.ar      1 <0>        -0.1121
     21 C16        -8.4059   -0.1705    0.0858 C.ar      1 <0>        -0.1199
     22 F1        -11.4969   -2.0711    0.1090 F         1 <0>        -0.1392
     23 C17        -0.0273   -4.2295   -0.0194 C.3       1 <0>         0.1768
     24 C18        -0.0628   -4.7238   -1.4426 C.2       1 <0>        -0.0586
     25 C19         1.0089   -5.0243   -2.1980 C.2       1 <0>        -0.1655
     26 C20         0.5186   -5.4474   -3.4547 C.2       1 <0>        -0.2196
     27 C21        -0.8231   -5.3723   -3.3950 C.2       1 <0>        -0.0221
     28 O3         -1.1696   -4.9334   -2.1739 O.3       1 <0>        -0.1626
     29 H1          3.2987    1.9907   -0.0191 H         1 <0>         0.1348
     30 H2          1.1435    3.1661    0.0081 H         1 <0>         0.1359
     31 H3         -0.9579    1.9239    0.0171 H         1 <0>         0.1403
     32 H4          3.3846   -0.4534   -0.0324 H         1 <0>         0.1388
     33 H5         -3.6235   -0.8944    0.9238 H         1 <0>         0.1148
     34 H6         -3.6415   -0.8854   -0.8561 H         1 <0>         0.1146
     35 H7         -5.4170   -2.6164   -0.8468 H         1 <0>         0.0762
     36 H8         -5.3990   -2.6253    0.9331 H         1 <0>         0.0761
     37 H9         -7.1706   -3.3173    0.0468 H         1 <0>         0.1382
     38 H10        -9.5762   -3.8378    0.0805 H         1 <0>         0.1398
     39 H11       -10.4824    0.3334    0.1093 H         1 <0>         0.1444
     40 H12        -8.0776    0.8583    0.0879 H         1 <0>         0.1433
     41 H13         0.8508   -4.6341    0.4839 H         1 <0>         0.1367
     42 H14        -0.9274   -4.5564    0.5012 H         1 <0>         0.1143
     43 H15         2.0450   -4.9574   -1.9006 H         1 <0>         0.1526
     44 H16         1.1084   -5.7656   -4.3017 H         1 <0>         0.1516
     45 H17        -1.5059   -5.6228   -4.1934 H         1 <0>         0.2071
@<TRIPOS>BOND
     1    1    6 ar
     2    1    2 ar
     3    1   29 1
     4    2    3 ar
     5    2   30 1
     6    3    4 ar
     7    3   31 1
     8    4   11 1
     9    4    5 ar
    10    5    6 ar
    11    5    7 1
    12    6   32 1
    13    7    8 2
    14    7    9 am
    15    9   10 1
    16    9   23 1
    17   10   11 2
    18   10   12 1
    19   12   13 1
    20   13   14 1
    21   13   33 1
    22   13   34 1
    23   14   15 1
    24   14   35 1
    25   14   36 1
    26   15   16 1
    27   16   21 ar
    28   16   17 ar
    29   17   18 ar
    30   17   37 1
    31   18   19 ar
    32   18   38 1
    33   19   20 ar
    34   19   22 1
    35   20   21 ar
    36   20   39 1
    37   21   40 1
    38   23   24 1
    39   23   41 1
    40   23   42 1
    41   24   28 1
    42   24   25 2
    43   25   26 1
    44   25   43 1
    45   26   27 2
    46   26   44 1
    47   27   28 1
    48   27   45 1
@<TRIPOS>MOLECULE
ZINC23175116
   54    56     0     0     0
SMALL
USER_CHARGES
(3R)-3-[4-allyl-5-[(4-tert-butylphenyl)methylsulfanyl]-1,2,4-triazol-3-yl]thiolane 1,1-dioxide
@<TRIPOS>ATOM
      1 C1          3.2008   13.8354    4.7708 C.3       1 <0>        -0.1414
      2 C2          4.0816   13.1867    3.7012 C.3       1 <0>        -0.0317
      3 C3          5.5440   13.2314    4.1488 C.3       1 <0>        -0.1477
      4 C4          3.9281   13.9484    2.3832 C.3       1 <0>        -0.1410
      5 C5          3.6600   11.7532    3.5049 C.ar      1 <0>        -0.0568
      6 C6          2.3714   11.4612    3.0985 C.ar      1 <0>        -0.1154
      7 C7          1.9850   10.1464    2.9176 C.ar      1 <0>        -0.0943
      8 C8          2.8872    9.1236    3.1426 C.ar      1 <0>        -0.0907
      9 C9          4.1743    9.4153    3.5541 C.ar      1 <0>        -0.0947
     10 C10         4.5620   10.7303    3.7308 C.ar      1 <0>        -0.1213
     11 C11         2.4660    7.6901    2.9453 C.3       1 <0>        -0.0602
     12 S1          2.7933    7.1950    1.2354 S.3       1 <0>         0.0096
     13 C12         2.2231    5.5285    1.2850 C.2       1 <0>         0.1617
     14 N1          1.7169    4.9073    2.3249 N.2       1 <0>        -0.2879
     15 N2          1.4020    3.7033    2.0035 N.2       1 <0>        -0.2707
     16 C13         1.6946    3.4831    0.7531 C.2       1 <0>         0.1868
     17 N3          2.2246    4.6388    0.2493 N.pl3     1 <0>        -0.4543
     18 C14         2.6962    4.8734   -1.1177 C.3       1 <0>         0.1284
     19 C15         1.5575    5.3872   -1.9606 C.2       1 <0>        -0.1999
     20 C16         1.6838    6.5150   -2.6149 C.2       1 <0>        -0.1437
     21 C17         1.4823    2.1953   -0.0003 C.3       1 <0>        -0.0021
     22 H1          1.8287    2.3356   -1.0349 H         1 <0>         0.1101
     23 C18         2.2955    1.0736    0.6667 C.3       1 <0>        -0.1284
     24 C19         1.8215   -0.2851    0.0762 C.3       1 <0>        -0.5797
     25 S2          0.0021   -0.0041    0.0020 S.o2      1 <0>         2.3896
     26 O1         -0.5888   -0.4810    1.2031 O.2       1 <0>        -0.9238
     27 O2         -0.4873   -0.4662   -1.2495 O.2       1 <0>        -0.9329
     28 C20        -0.0229    1.8349    0.0121 C.3       1 <0>        -0.5830
     29 H2          2.1494   13.8032    4.4490 H         1 <0>         0.0580
     30 H3          3.5086   14.8817    4.9141 H         1 <0>         0.0608
     31 H4          3.3112   13.2876    5.7183 H         1 <0>         0.0576
     32 H5          6.1772   12.7650    3.3797 H         1 <0>         0.0596
     33 H6          5.6543   12.6837    5.0963 H         1 <0>         0.0600
     34 H7          5.8518   14.2777    4.2921 H         1 <0>         0.0605
     35 H8          4.5614   13.4819    1.6142 H         1 <0>         0.0571
     36 H9          4.2358   14.9947    2.5264 H         1 <0>         0.0607
     37 H10         2.8767   13.9162    2.0614 H         1 <0>         0.0579
     38 H11         1.6667   12.2604    2.9220 H         1 <0>         0.1246
     39 H12         0.9782    9.9182    2.6001 H         1 <0>         0.1252
     40 H13         4.8779    8.6160    3.7341 H         1 <0>         0.1252
     41 H14         5.5689   10.9585    4.0480 H         1 <0>         0.1303
     42 H15         3.0347    7.0433    3.6296 H         1 <0>         0.1076
     43 H16         1.3909    7.5914    3.1562 H         1 <0>         0.1076
     44 H17         3.5065    5.6171   -1.1034 H         1 <0>         0.1067
     45 H18         3.0711    3.9308   -1.5431 H         1 <0>         0.1102
     46 H19         0.6203    4.8151   -2.0264 H         1 <0>         0.1207
     47 H20         0.8526    6.8900   -3.2301 H         1 <0>         0.1136
     48 H21         2.6210    7.0871   -2.5491 H         1 <0>         0.1071
     49 H22         3.3654    1.2237    0.4599 H         1 <0>         0.1033
     50 H23         2.1257    1.0940    1.7533 H         1 <0>         0.1047
     51 H24         2.2862   -0.4388   -0.9089 H         1 <0>         0.1444
     52 H25         2.1162   -1.1014    0.7521 H         1 <0>         0.1506
     53 H26        -0.4916    2.2490    0.9170 H         1 <0>         0.1538
     54 H27        -0.5088    2.2586   -0.8792 H         1 <0>         0.1475
@<TRIPOS>BOND
     1    1    2 1
     2    1   29 1
     3    1   30 1
     4    1   31 1
     5    2    3 1
     6    2    4 1
     7    2    5 1
     8    3   32 1
     9    3   33 1
    10    3   34 1
    11    4   35 1
    12    4   36 1
    13    4   37 1
    14    5   10 ar
    15    5    6 ar
    16    6    7 ar
    17    6   38 1
    18    7    8 ar
    19    7   39 1
    20    8    9 ar
    21    8   11 1
    22    9   10 ar
    23    9   40 1
    24   10   41 1
    25   11   12 1
    26   11   42 1
    27   11   43 1
    28   12   13 1
    29   13   17 1
    30   13   14 2
    31   14   15 1
    32   15   16 2
    33   16   17 1
    34   16   21 1
    35   17   18 1
    36   18   19 1
    37   18   44 1
    38   18   45 1
    39   19   20 2
    40   19   46 1
    41   20   47 1
    42   20   48 1
    43   21   22 1
    44   21   28 1
    45   21   23 1
    46   23   24 1
    47   23   49 1
    48   23   50 1
    49   24   25 1
    50   24   51 1
    51   24   52 1
    52   25   26 2
    53   25   27 2
    54   25   28 1
    55   28   53 1
    56   28   54 1
@<TRIPOS>MOLECULE
ZINC45936095
   49    51     0     0     0
SMALL
USER_CHARGES

@<TRIPOS>ATOM
      1 C1          0.6119    2.9265    0.1655 C.3       1 <0>        -0.1751
      2 C2          0.3619    1.4194    0.2500 C.3       1 <0>         0.0966
      3 N1          1.0328    0.8788    1.4349 N.am      1 <0>        -0.6047
      4 C3          0.3236    0.8204    2.7155 C.3       1 <0>         0.1568
      5 C4         -0.3958   -0.4987    2.8316 C.ar      1 <0>        -0.0840
      6 C5         -1.6917   -0.6225    2.3656 C.ar      1 <0>        -0.1173
      7 C6         -2.3528   -1.8317    2.4714 C.ar      1 <0>        -0.0928
      8 C7         -1.7191   -2.9187    3.0436 C.ar      1 <0>        -0.1489
      9 C8         -0.4216   -2.7960    3.5105 C.ar      1 <0>         0.0971
     10 C9          0.2419   -1.5856    3.3984 C.ar      1 <0>        -0.1304
     11 F1          0.1987   -3.8576    4.0704 F         1 <0>        -0.1378
     12 C10         2.3024    0.4353    1.3468 C.2       1 <0>         0.5197
     13 O1          2.8579   -0.0123    2.3277 O.2       1 <0>        -0.5099
     14 C11         3.0319    0.4954    0.0295 C.3       1 <0>         0.0498
     15 O2          4.3515   -0.0286    0.1915 O.3       1 <0>        -0.3258
     16 C12         5.1407   -0.0465   -0.9003 C.2       1 <0>         0.5185
     17 O3          4.7203    0.3713   -1.9607 O.2       1 <0>        -0.4882
     18 C13         6.5166   -0.5738   -0.8080 C.ar      1 <0>        -0.1824
     19 C14         7.0489   -0.9322    0.4262 C.ar      1 <0>         0.0278
     20 C15         8.3628   -1.4285    0.4578 C.ar      1 <0>        -0.1200
     21 C16         8.9676   -1.8120    1.6671 C.ar      1 <0>        -0.0682
     22 C17        10.2434   -2.2900    1.6598 C.ar      1 <0>        -0.0394
     23 C18        10.9569   -2.4034    0.4670 C.ar      1 <0>        -0.0754
     24 C19        10.4012   -2.0406   -0.7214 C.ar      1 <0>        -0.0875
     25 C20         9.0872   -1.5434   -0.7559 C.ar      1 <0>         0.1619
     26 N2          8.5212   -1.1829   -1.9136 N.ar      1 <0>        -0.4759
     27 C21         7.2977   -0.7234   -1.9675 C.ar      1 <0>         0.2226
     28 C22         6.7137   -0.3399   -3.3028 C.3       1 <0>        -0.1163
     29 Cl1        10.9902   -2.7630    3.1539 Cl        1 <0>        -0.0560
     30 H1          1.6833    3.1136    0.0935 H         1 <0>         0.0581
     31 H2          0.1127    3.3287   -0.7160 H         1 <0>         0.0742
     32 H3          0.2177    3.4108    1.0589 H         1 <0>         0.0636
     33 H4         -0.7095    1.2323    0.3221 H         1 <0>         0.0881
     34 H5          0.7561    0.9351   -0.6434 H         1 <0>         0.0819
     35 H6          1.0393    0.9170    3.5319 H         1 <0>         0.0987
     36 H7         -0.3994    1.6344    2.7679 H         1 <0>         0.0958
     37 H8         -2.1879    0.2265    1.9190 H         1 <0>         0.1291
     38 H9         -3.3650   -1.9272    2.1071 H         1 <0>         0.1346
     39 H10        -2.2361   -3.8632    3.1268 H         1 <0>         0.1360
     40 H11         1.2557   -1.4899    3.7583 H         1 <0>         0.1415
     41 H12         2.4942   -0.0967   -0.7109 H         1 <0>         0.1024
     42 H13         3.0908    1.5307   -0.3063 H         1 <0>         0.1037
     43 H14         6.4700   -0.8317    1.3324 H         1 <0>         0.1628
     44 H15         8.4243   -1.7280    2.5967 H         1 <0>         0.1477
     45 H16        11.9670   -2.7851    0.4865 H         1 <0>         0.1461
     46 H17        10.9687   -2.1345   -1.6355 H         1 <0>         0.1511
     47 H18         6.8267    0.7336   -3.4540 H         1 <0>         0.0896
     48 H19         7.2365   -0.8754   -4.0953 H         1 <0>         0.0783
     49 H20         5.6556   -0.6006   -3.3250 H         1 <0>         0.1017
@<TRIPOS>BOND
     1    1    2 1
     2    1   30 1
     3    1   31 1
     4    1   32 1
     5    2    3 1
     6    2   33 1
     7    2   34 1
     8    3    4 1
     9    3   12 am
    10    4    5 1
    11    4   35 1
    12    4   36 1
    13    5   10 ar
    14    5    6 ar
    15    6    7 ar
    16    6   37 1
    17    7    8 ar
    18    7   38 1
    19    8    9 ar
    20    8   39 1
    21    9   10 ar
    22    9   11 1
    23   10   40 1
    24   12   13 2
    25   12   14 1
    26   14   15 1
    27   14   41 1
    28   14   42 1
    29   15   16 1
    30   16   17 2
    31   16   18 1
    32   18   27 ar
    33   18   19 ar
    34   19   20 ar
    35   19   43 1
    36   20   25 ar
    37   20   21 ar
    38   21   22 ar
    39   21   44 1
    40   22   23 ar
    41   22   29 1
    42   23   24 ar
    43   23   45 1
    44   24   25 ar
    45   24   46 1
    46   25   26 ar
    47   26   27 ar
    48   27   28 1
    49   28   47 1
    50   28   48 1
    51   28   49 1
@<TRIPOS>MOLECULE
ZINC60392519
   45    46     0     0     0
SMALL
USER_CHARGES

@<TRIPOS>ATOM
      1 C1         -2.2601    1.6638   -2.3944 C.3       1 <0>        -0.1487
      2 C2         -2.0714    0.1468   -2.4574 C.3       1 <0>        -0.0864
      3 C3         -0.6177   -0.1721   -2.8124 C.3       1 <0>        -0.1581
      4 C4         -2.4105   -0.4662   -1.0972 C.3       1 <0>        -0.1079
      5 C5         -2.3438   -1.9687   -1.1927 C.2       1 <0>         0.4597
      6 O1         -2.0547   -2.4952   -2.2411 O.2       1 <0>        -0.4830
      7 O2         -2.6056   -2.7221   -0.1130 O.3       1 <0>        -0.2988
      8 C6         -2.6341   -4.0729   -0.2687 C.ar      1 <0>         0.0904
      9 C7         -1.4473   -4.7848   -0.3647 C.ar      1 <0>        -0.1103
     10 C8         -1.4753   -6.1562   -0.5228 C.ar      1 <0>        -0.1008
     11 C9         -2.6921   -6.8230   -0.5851 C.ar      1 <0>         0.1321
     12 C10        -3.8797   -6.1095   -0.4884 C.ar      1 <0>        -0.0897
     13 C11        -3.8497   -4.7386   -0.3255 C.ar      1 <0>        -0.1047
     14 N1         -2.7214   -8.2121   -0.7457 N.pl3     1 <0>        -0.9496
     15 C12        -2.1095   -9.0793    0.2642 C.3       1 <0>         0.0871
     16 S1         -3.4477   -8.8765   -2.0774 S.o2      1 <0>         2.6855
     17 O3         -3.7237  -10.2327   -1.7552 O.2       1 <0>        -0.9418
     18 O4         -4.4625   -7.9680   -2.4823 O.2       1 <0>        -0.9388
     19 C13        -2.2483   -8.8996   -3.3679 C.ar      1 <0>        -0.6783
     20 C14        -2.1293   -7.8175   -4.2200 C.ar      1 <0>        -0.0012
     21 C15        -1.1886   -7.8350   -5.2325 C.ar      1 <0>        -0.1297
     22 C16        -0.3660   -8.9358   -5.3932 C.ar      1 <0>         0.0197
     23 C17        -0.4856  -10.0184   -4.5401 C.ar      1 <0>        -0.1316
     24 C18        -1.4228   -9.9974   -3.5244 C.ar      1 <0>        -0.0073
     25 Cl1         0.8153   -8.9587   -6.6650 Cl        1 <0>        -0.0503
     26 H1         -2.0185    2.1006   -3.3634 H         1 <0>         0.0626
     27 H2         -3.2957    1.8910   -2.1415 H         1 <0>         0.0582
     28 H3         -1.6004    2.0807   -1.6334 H         1 <0>         0.0584
     29 H4         -2.7311   -0.2700   -3.2184 H         1 <0>         0.0812
     30 H5          0.0419    0.2448   -2.0514 H         1 <0>         0.0523
     31 H6         -0.4834   -1.2528   -2.8573 H         1 <0>         0.0697
     32 H7         -0.3762    0.2647   -3.7814 H         1 <0>         0.0583
     33 H8         -1.6948   -0.1173   -0.3528 H         1 <0>         0.1095
     34 H9         -3.4161   -0.1651   -0.8035 H         1 <0>         0.1102
     35 H10        -0.5013   -4.2661   -0.3162 H         1 <0>         0.1340
     36 H11        -0.5513   -6.7102   -0.5983 H         1 <0>         0.1364
     37 H12        -4.8263   -6.6271   -0.5372 H         1 <0>         0.1449
     38 H13        -4.7731   -4.1840   -0.2465 H         1 <0>         0.1404
     39 H14        -2.8508   -9.3341    1.0216 H         1 <0>         0.0713
     40 H15        -1.7474   -9.9909   -0.2110 H         1 <0>         0.0808
     41 H16        -1.2751   -8.5580    0.7334 H         1 <0>         0.0808
     42 H17        -2.7717   -6.9585   -4.0947 H         1 <0>         0.1501
     43 H18        -1.0960   -6.9898   -5.8983 H         1 <0>         0.1464
     44 H19         0.1561  -10.8781   -4.6652 H         1 <0>         0.1466
     45 H20        -1.5130  -10.8405   -2.8555 H         1 <0>         0.1505
@<TRIPOS>BOND
     1    1    2 1
     2    1   26 1
     3    1   27 1
     4    1   28 1
     5    2    3 1
     6    2    4 1
     7    2   29 1
     8    3   30 1
     9    3   31 1
    10    3   32 1
    11    4    5 1
    12    4   33 1
    13    4   34 1
    14    5    6 2
    15    5    7 1
    16    7    8 1
    17    8   13 ar
    18    8    9 ar
    19    9   10 ar
    20    9   35 1
    21   10   11 ar
    22   10   36 1
    23   11   12 ar
    24   11   14 1
    25   12   13 ar
    26   12   37 1
    27   13   38 1
    28   14   15 1
    29   14   16 1
    30   15   39 1
    31   15   40 1
    32   15   41 1
    33   16   17 2
    34   16   18 2
    35   16   19 1
    36   19   24 ar
    37   19   20 ar
    38   20   21 ar
    39   20   42 1
    40   21   22 ar
    41   21   43 1
    42   22   23 ar
    43   22   25 1
    44   23   24 ar
    45   23   44 1
    46   24   45 1
@<TRIPOS>MOLECULE
ZINC14166470
   50    52     0     0     0
SMALL
USER_CHARGES
N-[[4-[(2-chlorophenyl)methoxy]phenyl]methyleneamino]-3-phenylsulfanyl-propanamide
@<TRIPOS>ATOM
      1 C1          8.2906  -11.7881   -0.1384 C.ar      1 <0>        -0.1232
      2 C2          7.3449  -12.7973   -0.1348 C.ar      1 <0>        -0.1015
      3 C3          5.9999  -12.4852   -0.1202 C.ar      1 <0>        -0.0998
      4 C4          5.5969  -11.1553   -0.1095 C.ar      1 <0>        -0.0828
      5 C5          6.5500  -10.1438   -0.1195 C.ar      1 <0>        -0.1323
      6 C6          7.8933  -10.4634   -0.1283 C.ar      1 <0>        -0.0999
      7 S1          3.8817  -10.7523   -0.0908 S.3       1 <0>        -0.1144
      8 C7          3.8571   -8.9385   -0.0814 C.3       1 <0>        -0.0947
      9 C8          2.4079   -8.4482   -0.0649 C.3       1 <0>        -0.1191
     10 C9          2.3874   -6.9414   -0.0571 C.2       1 <0>         0.5373
     11 O1          3.4297   -6.3205   -0.0641 O.2       1 <0>        -0.5002
     12 N1          1.2113   -6.2834   -0.0423 N.am      1 <0>        -0.5843
     13 N2          1.1923   -4.8826   -0.0351 N.2       1 <0>        -0.2368
     14 C10         0.0597   -4.2490   -0.0208 C.2       1 <0>         0.1208
     15 C11         0.0397   -2.7749   -0.0132 C.ar      1 <0>        -0.0981
     16 C12        -1.1786   -2.0907    0.0021 C.ar      1 <0>        -0.0467
     17 C13        -1.1925   -0.7128    0.0096 C.ar      1 <0>        -0.1544
     18 C14         0.0021   -0.0041    0.0020 C.ar      1 <0>         0.1500
     19 C15         1.2153   -0.6799   -0.0189 C.ar      1 <0>        -0.2136
     20 C16         1.2390   -2.0578   -0.0208 C.ar      1 <0>        -0.0338
     21 O2         -0.0163    1.3542    0.0095 O.3       1 <0>        -0.3081
     22 C17         1.2479    2.0203    0.0010 C.3       1 <0>         0.1009
     23 C18         1.0302    3.5114    0.0111 C.ar      1 <0>        -0.0852
     24 C19        -0.2541    4.0225    0.0203 C.ar      1 <0>        -0.0862
     25 C20        -0.4539    5.3902    0.0339 C.ar      1 <0>        -0.1132
     26 C21         0.6305    6.2478    0.0286 C.ar      1 <0>        -0.1046
     27 C22         1.9149    5.7381    0.0141 C.ar      1 <0>        -0.1074
     28 C23         2.1156    4.3690    0.0053 C.ar      1 <0>        -0.0307
     29 Cl1         3.7288    3.7280   -0.0135 Cl        1 <0>        -0.0644
     30 H1          9.3419  -12.0351   -0.1495 H         1 <0>         0.1261
     31 H2          7.6588  -13.8306   -0.1430 H         1 <0>         0.1291
     32 H3          5.2620  -13.2738   -0.1173 H         1 <0>         0.1283
     33 H4          6.2404   -9.1092   -0.1157 H         1 <0>         0.1253
     34 H5          8.6345   -9.6779   -0.1315 H         1 <0>         0.1269
     35 H6          4.3573   -8.5637   -0.9744 H         1 <0>         0.0989
     36 H7          4.3746   -8.5727    0.8054 H         1 <0>         0.0989
     37 H8          1.9077   -8.8230    0.8282 H         1 <0>         0.1107
     38 H9          1.8904   -8.8140   -0.9517 H         1 <0>         0.1107
     39 H10         0.3779   -6.7798   -0.0367 H         1 <0>         0.3880
     40 H11        -0.8682   -4.8017   -0.0146 H         1 <0>         0.1217
     41 H12        -2.1080   -2.6409    0.0076 H         1 <0>         0.1374
     42 H13        -2.1336   -0.1831    0.0218 H         1 <0>         0.1377
     43 H14         2.1417   -0.1248   -0.0296 H         1 <0>         0.1328
     44 H15         2.1828   -2.5825   -0.0330 H         1 <0>         0.1385
     45 H16         1.8173    1.7302    0.8840 H         1 <0>         0.0839
     46 H17         1.8003    1.7398   -0.8958 H         1 <0>         0.0839
     47 H18        -1.1016    3.3531    0.0203 H         1 <0>         0.1421
     48 H19        -1.4575    5.7890    0.0446 H         1 <0>         0.1328
     49 H20         0.4738    7.3164    0.0355 H         1 <0>         0.1348
     50 H21         2.7619    6.4082    0.0093 H         1 <0>         0.1375
@<TRIPOS>BOND
     1    1    6 ar
     2    1    2 ar
     3    1   30 1
     4    2    3 ar
     5    2   31 1
     6    3    4 ar
     7    3   32 1
     8    4    5 ar
     9    4    7 1
    10    5    6 ar
    11    5   33 1
    12    6   34 1
    13    7    8 1
    14    8    9 1
    15    8   35 1
    16    8   36 1
    17    9   10 1
    18    9   37 1
    19    9   38 1
    20   10   11 2
    21   10   12 am
    22   12   13 1
    23   12   39 1
    24   13   14 2
    25   14   15 1
    26   14   40 1
    27   15   20 ar
    28   15   16 ar
    29   16   17 ar
    30   16   41 1
    31   17   18 ar
    32   17   42 1
    33   18   19 ar
    34   18   21 1
    35   19   20 ar
    36   19   43 1
    37   20   44 1
    38   21   22 1
    39   22   23 1
    40   22   45 1
    41   22   46 1
    42   23   28 ar
    43   23   24 ar
    44   24   25 ar
    45   24   47 1
    46   25   26 ar
    47   25   48 1
    48   26   27 ar
    49   26   49 1
    50   27   28 ar
    51   27   50 1
    52   28   29 1
@<TRIPOS>MOLECULE
ZINC16115931
   68    70     0     0     0
SMALL
USER_CHARGES
N-[2-[(2R,4R)-2-ethyl-4-(4-fluorophenyl)-2-methyl-tetrahydropyran-4-yl]ethyl]-4-isobutoxy-benzamide
@<TRIPOS>ATOM
      1 C1         10.4187    3.6649   -2.5899 C.3       1 <0>        -0.1523
      2 C2         10.7185    2.7057   -1.4363 C.3       1 <0>        -0.1099
      3 C3          9.6089    1.6563   -1.3441 C.3       1 <0>         0.1205
      4 C4          9.9007    0.7053   -0.1804 C.3       1 <0>        -0.1425
      5 C5          8.8181   -0.3773   -0.1321 C.3       1 <0>        -0.0049
      6 C6          8.7773   -1.1035   -1.4802 C.3       1 <0>        -0.1411
      7 C7          8.5288   -0.0826   -2.5936 C.3       1 <0>         0.0547
      8 O1          9.5540    0.9125   -2.5631 O.3       1 <0>        -0.3671
      9 C8          7.4591    0.2699    0.1420 C.3       1 <0>        -0.1619
     10 C9          7.5305    1.0755    1.4407 C.3       1 <0>         0.1145
     11 N1          6.2753    1.8064    1.6317 N.am      1 <0>        -0.7292
     12 C10         6.1092    2.5886    2.7166 C.2       1 <0>         0.5632
     13 O2          7.0012    2.6877    3.5369 O.2       1 <0>        -0.5354
     14 C11         4.8445    3.3249    2.9090 C.ar      1 <0>        -0.1791
     15 C12         4.6704    4.1364    4.0332 C.ar      1 <0>        -0.0169
     16 C13         3.4889    4.8213    4.2093 C.ar      1 <0>        -0.1605
     17 C14         2.4702    4.7064    3.2706 C.ar      1 <0>         0.1613
     18 C15         2.6395    3.9002    2.1510 C.ar      1 <0>        -0.2189
     19 C16         3.8180    3.2120    1.9677 C.ar      1 <0>        -0.0430
     20 O3          1.3051    5.3786    3.4506 O.3       1 <0>        -0.3072
     21 C17         0.3005    5.2156    2.4476 C.3       1 <0>         0.0602
     22 C18        -0.9313    6.0431    2.8202 C.3       1 <0>        -0.0954
     23 C19        -0.5728    7.5304    2.7962 C.3       1 <0>        -0.1490
     24 C20        -2.0513    5.7721    1.8138 C.3       1 <0>        -0.1475
     25 C21         9.1369   -1.3631    0.9622 C.ar      1 <0>        -0.0823
     26 C22        10.2138   -1.1407    1.8000 C.ar      1 <0>        -0.0889
     27 C23        10.5037   -2.0412    2.8074 C.ar      1 <0>        -0.1486
     28 C24         9.7216   -3.1721    2.9706 C.ar      1 <0>         0.0957
     29 C25         8.6467   -3.3966    2.1273 C.ar      1 <0>        -0.1506
     30 C26         8.3556   -2.4921    1.1239 C.ar      1 <0>        -0.0856
     31 F1         10.0074   -4.0559    3.9516 F         1 <0>        -0.1398
     32 C27         8.2666    2.3522   -1.1100 C.3       1 <0>        -0.2159
     33 H1         10.2663    3.0947   -3.5063 H         1 <0>         0.0639
     34 H2          9.5182    4.2357   -2.3632 H         1 <0>         0.0549
     35 H3         11.2579    4.3477   -2.7222 H         1 <0>         0.0536
     36 H4         10.7679    3.2652   -0.5021 H         1 <0>         0.0752
     37 H5         11.6731    2.2105   -1.6142 H         1 <0>         0.0705
     38 H6          9.8994    1.2638    0.7556 H         1 <0>         0.0819
     39 H7         10.8753    0.2395   -0.3263 H         1 <0>         0.0797
     40 H8          9.7292   -1.6058   -1.6523 H         1 <0>         0.0780
     41 H9          7.9731   -1.8393   -1.4733 H         1 <0>         0.0769
     42 H10         8.5414   -0.5878   -3.5594 H         1 <0>         0.0960
     43 H11         7.5584    0.3904   -2.4432 H         1 <0>         0.0555
     44 H12         6.6997   -0.5062    0.2372 H         1 <0>         0.0724
     45 H13         7.1994    0.9331   -0.6832 H         1 <0>         0.1105
     46 H14         8.3578    1.7830    1.3844 H         1 <0>         0.0799
     47 H15         7.6880    0.3983    2.2802 H         1 <0>         0.0712
     48 H16         5.5636    1.7273    0.9773 H         1 <0>         0.3982
     49 H17         5.4614    4.2260    4.7631 H         1 <0>         0.1438
     50 H18         3.3537    5.4490    5.0777 H         1 <0>         0.1394
     51 H19         1.8455    3.8132    1.4241 H         1 <0>         0.1341
     52 H20         3.9489    2.5860    1.0974 H         1 <0>         0.1270
     53 H21         0.6882    5.5537    1.4866 H         1 <0>         0.0657
     54 H22         0.0239    4.1635    2.3780 H         1 <0>         0.0651
     55 H23        -1.2662    5.7662    3.8199 H         1 <0>         0.0827
     56 H24         0.2251    7.7234    3.5132 H         1 <0>         0.0626
     57 H25        -0.2379    7.8072    1.7965 H         1 <0>         0.0546
     58 H26        -1.4503    8.1199    3.0617 H         1 <0>         0.0589
     59 H27        -2.3067    4.7126    1.8310 H         1 <0>         0.0584
     60 H28        -2.9288    6.3617    2.0793 H         1 <0>         0.0668
     61 H29        -1.7164    6.0490    0.8142 H         1 <0>         0.0586
     62 H30        10.8264   -0.2608    1.6697 H         1 <0>         0.1362
     63 H31        11.3426   -1.8652    3.4644 H         1 <0>         0.1359
     64 H32         8.0361   -4.2785    2.2534 H         1 <0>         0.1349
     65 H33         7.5171   -2.6670    0.4659 H         1 <0>         0.1306
     66 H34         7.4923    1.8537   -1.6932 H         1 <0>         0.0736
     67 H35         8.0119    2.3037   -0.0513 H         1 <0>         0.0889
     68 H36         8.3393    3.3950   -1.4188 H         1 <0>         0.0667
@<TRIPOS>BOND
     1    1    2 1
     2    1   33 1
     3    1   34 1
     4    1   35 1
     5    2    3 1
     6    2   36 1
     7    2   37 1
     8    3    8 1
     9    3    4 1
    10    3   32 1
    11    4    5 1
    12    4   38 1
    13    4   39 1
    14    5    6 1
    15    5    9 1
    16    5   25 1
    17    6    7 1
    18    6   40 1
    19    6   41 1
    20    7    8 1
    21    7   42 1
    22    7   43 1
    23    9   10 1
    24    9   44 1
    25    9   45 1
    26   10   11 1
    27   10   46 1
    28   10   47 1
    29   11   12 am
    30   11   48 1
    31   12   13 2
    32   12   14 1
    33   14   19 ar
    34   14   15 ar
    35   15   16 ar
    36   15   49 1
    37   16   17 ar
    38   16   50 1
    39   17   18 ar
    40   17   20 1
    41   18   19 ar
    42   18   51 1
    43   19   52 1
    44   20   21 1
    45   21   22 1
    46   21   53 1
    47   21   54 1
    48   22   23 1
    49   22   24 1
    50   22   55 1
    51   23   56 1
    52   23   57 1
    53   23   58 1
    54   24   59 1
    55   24   60 1
    56   24   61 1
    57   25   30 ar
    58   25   26 ar
    59   26   27 ar
    60   26   62 1
    61   27   28 ar
    62   27   63 1
    63   28   29 ar
    64   28   31 1
    65   29   30 ar
    66   29   64 1
    67   30   65 1
    68   32   66 1
    69   32   67 1
    70   32   68 1
@<TRIPOS>MOLECULE
ZINC33693632
   61    65     0     0     0
SMALL
USER_CHARGES
(3R)-N-[(1R)-1,2-diphenylethyl]-3-(3-fluorophenyl)-3-imidazo[1,2-a]pyridin-3-yl-propanamide
@<TRIPOS>ATOM
      1 C1         -0.2171   -7.1153   -5.0502 C.ar      1 <0>        -0.1228
      2 C2         -1.0627   -6.2406   -5.7066 C.ar      1 <0>        -0.1160
      3 C3         -0.6254   -4.9706   -6.0332 C.ar      1 <0>        -0.1155
      4 C4          0.6576   -4.5753   -5.7035 C.ar      1 <0>        -0.0800
      5 C5          1.5049   -5.4517   -5.0518 C.ar      1 <0>        -0.1136
      6 C6          1.0658   -6.7200   -4.7205 C.ar      1 <0>        -0.1174
      7 C7          1.1345   -3.1909   -6.0600 C.3       1 <0>        -0.0831
      8 C8          0.8183   -2.2310   -4.9113 C.3       1 <0>         0.1985
      9 H1         -0.2469   -2.2763   -4.6405 H         1 <0>         0.0976
     10 C9          1.1829   -0.8259   -5.3160 C.ar      1 <0>        -0.0940
     11 C10         2.4988   -0.4073   -5.2507 C.ar      1 <0>        -0.1039
     12 C11         2.8339    0.8803   -5.6261 C.ar      1 <0>        -0.1207
     13 C12         1.8518    1.7521   -6.0577 C.ar      1 <0>        -0.1189
     14 C13         0.5353    1.3350   -6.1185 C.ar      1 <0>        -0.1180
     15 C14         0.2008    0.0461   -5.7472 C.ar      1 <0>        -0.1039
     16 N1          1.5915   -2.6144   -3.7275 N.am      1 <0>        -0.7328
     17 C15         1.1498   -2.2837   -2.4979 C.2       1 <0>         0.5199
     18 O1          0.1123   -1.6686   -2.3714 O.2       1 <0>        -0.5272
     19 C16         1.9452   -2.6781   -1.2802 C.3       1 <0>        -0.1302
     20 C17         1.2290   -2.1849   -0.0214 C.3       1 <0>         0.0535
     21 H2          0.1947   -2.5587    0.0001 H         1 <0>         0.0930
     22 C18         1.2082   -0.6780   -0.0131 C.ar      1 <0>        -0.0407
     23 C19         2.3961    0.0295   -0.0211 C.ar      1 <0>        -0.1220
     24 C20         2.3786    1.4116   -0.0135 C.ar      1 <0>        -0.0905
     25 C21         1.1733    2.0880    0.0021 C.ar      1 <0>        -0.1546
     26 C22        -0.0167    1.3806    0.0096 C.ar      1 <0>         0.0977
     27 C23         0.0021   -0.0041    0.0020 C.ar      1 <0>        -0.1199
     28 F1         -1.1955    2.0406    0.0188 F         1 <0>        -0.1408
     29 C24         1.9580   -2.6839    1.1995 C.2       1 <0>        -0.0614
     30 C25         3.2935   -2.8438    1.3266 C.2       1 <0>         0.0432
     31 N2          3.5531   -3.3045    2.5526 N.2       1 <0>        -0.4885
     32 C26         2.4135   -3.4439    3.2152 C.2       1 <0>         0.2251
     33 N3          1.3916   -3.0544    2.3888 N.pl3     1 <0>        -0.3529
     34 C27         0.0985   -3.0910    2.8238 C.2       1 <0>         0.0548
     35 C28        -0.1946   -3.5077    4.0735 C.2       1 <0>        -0.1387
     36 C29         0.8309   -3.9098    4.9452 C.2       1 <0>        -0.1000
     37 C30         2.1233   -3.8862    4.5215 C.2       1 <0>        -0.0797
     38 H3         -0.5587   -8.1076   -4.7953 H         1 <0>         0.1204
     39 H4         -2.0649   -6.5495   -5.9645 H         1 <0>         0.1213
     40 H5         -1.2859   -4.2873   -6.5463 H         1 <0>         0.1207
     41 H6          2.5087   -5.1444   -4.7981 H         1 <0>         0.1185
     42 H7          1.7266   -7.4035   -4.2080 H         1 <0>         0.1213
     43 H8          2.2206   -3.2105   -6.2330 H         1 <0>         0.0826
     44 H9          0.6238   -2.8509   -6.9730 H         1 <0>         0.0906
     45 H10         3.2654   -1.0872   -4.9096 H         1 <0>         0.1172
     46 H11         3.8625    1.2060   -5.5790 H         1 <0>         0.1203
     47 H12         2.1131    2.7591   -6.3478 H         1 <0>         0.1202
     48 H13        -0.2320    2.0162   -6.4556 H         1 <0>         0.1213
     49 H14        -0.8278   -0.2797   -5.7943 H         1 <0>         0.1198
     50 H15         2.5326   -3.1722   -3.8422 H         1 <0>         0.4160
     51 H16         2.0397   -3.7734   -1.2429 H         1 <0>         0.1045
     52 H17         2.9463   -2.2253   -1.3337 H         1 <0>         0.1025
     53 H18         3.3384   -0.4981   -0.0337 H         1 <0>         0.1257
     54 H19         3.3071    1.9632   -0.0198 H         1 <0>         0.1314
     55 H20         1.1599    3.1679    0.0076 H         1 <0>         0.1326
     56 H21        -0.9257   -0.5569    0.0075 H         1 <0>         0.1308
     57 H22         4.0286   -2.6339    0.5637 H         1 <0>         0.1779
     58 H23        -0.6976   -2.7841    2.1617 H         1 <0>         0.1604
     59 H24        -1.2222   -3.5325    4.4048 H         1 <0>         0.1519
     60 H25         0.5937   -4.2429    5.9448 H         1 <0>         0.1442
     61 H26         2.9201   -4.1916    5.1836 H         1 <0>         0.1521
@<TRIPOS>BOND
     1    1    6 ar
     2    1    2 ar
     3    1   38 1
     4    2    3 ar
     5    2   39 1
     6    3    4 ar
     7    3   40 1
     8    4    5 ar
     9    4    7 1
    10    5    6 ar
    11    5   41 1
    12    6   42 1
    13    7    8 1
    14    7   43 1
    15    7   44 1
    16    8    9 1
    17    8   10 1
    18    8   16 1
    19   10   15 ar
    20   10   11 ar
    21   11   12 ar
    22   11   45 1
    23   12   13 ar
    24   12   46 1
    25   13   14 ar
    26   13   47 1
    27   14   15 ar
    28   14   48 1
    29   15   49 1
    30   16   17 am
    31   16   50 1
    32   17   18 2
    33   17   19 1
    34   19   20 1
    35   19   51 1
    36   19   52 1
    37   20   21 1
    38   20   22 1
    39   20   29 1
    40   22   27 ar
    41   22   23 ar
    42   23   24 ar
    43   23   53 1
    44   24   25 ar
    45   24   54 1
    46   25   26 ar
    47   25   55 1
    48   26   27 ar
    49   26   28 1
    50   27   56 1
    51   29   33 1
    52   29   30 2
    53   30   31 1
    54   30   57 1
    55   31   32 2
    56   32   37 1
    57   32   33 1
    58   33   34 1
    59   34   35 2
    60   34   58 1
    61   35   36 1
    62   35   59 1
    63   36   37 2
    64   36   60 1
    65   37   61 1
@<TRIPOS>MOLECULE
ZINC36571630
   66    66     0     0     0
SMALL
USER_CHARGES

@<TRIPOS>ATOM
      1 C1          1.4140   -7.7124   -2.0642 C.3       1 <0>        -0.1525
      2 C2          0.8397   -6.5902   -1.1972 C.3       1 <0>        -0.1436
      3 C3          1.9756   -5.6849   -0.7165 C.3       1 <0>         0.1070
      4 N1          1.4157   -4.5436    0.0116 N.am      1 <0>        -0.5963
      5 C4          1.2718   -4.6033    1.4683 C.3       1 <0>         0.1629
      6 H1          1.5376   -5.6005    1.8191 H         1 <0>         0.1111
      7 C5         -0.1561   -4.3024    1.8448 C.2       1 <0>        -0.1652
      8 C6         -0.8980   -5.2312    2.3952 C.2       1 <0>        -0.1389
      9 C7         -0.2926   -6.5629    2.7575 C.3       1 <0>        -0.1359
     10 C8          2.1841   -3.5870    2.1053 C.2       1 <0>         0.5052
     11 O1          2.8093   -2.8138    1.4109 O.2       1 <0>        -0.5048
     12 N2          2.3052   -3.5372    3.4467 N.am      1 <0>        -0.7232
     13 C9          3.1921   -2.5492    4.0659 C.3       1 <0>         0.1797
     14 C10         4.6445   -2.8753    3.7126 C.3       1 <0>        -0.1592
     15 C11         2.8420   -1.1532    3.5467 C.3       1 <0>        -0.1623
     16 C12         3.0159   -2.5871    5.5853 C.3       1 <0>        -0.1124
     17 C13         1.6349   -2.0404    5.9524 C.3       1 <0>        -0.0669
     18 C14         0.5712   -2.7190    5.0871 C.3       1 <0>        -0.1473
     19 C15         1.3495   -2.3252    7.4283 C.3       1 <0>        -0.1418
     20 C16         1.6031   -0.5302    5.7090 C.3       1 <0>        -0.1590
     21 C17         1.0330   -3.4387   -0.6586 C.2       1 <0>         0.5355
     22 O2          0.5694   -2.4939   -0.0558 O.2       1 <0>        -0.5059
     23 C18         1.1810   -3.3773   -2.1571 C.3       1 <0>        -0.1054
     24 C19         0.6839   -2.0453   -2.6568 C.ar      1 <0>        -0.0474
     25 C20        -0.6175   -1.9172   -3.1054 C.ar      1 <0>        -0.0922
     26 C21        -1.0743   -0.6959   -3.5639 C.ar      1 <0>        -0.1027
     27 C22        -0.2301    0.3989   -3.5749 C.ar      1 <0>        -0.0994
     28 C23         1.0721    0.2726   -3.1265 C.ar      1 <0>        -0.0311
     29 C24         1.5279   -0.9496   -2.6613 C.ar      1 <0>        -0.0139
     30 Cl1         3.1598   -1.1081   -2.0909 Cl        1 <0>        -0.0370
     31 Cl2         2.1325    1.6470   -3.1401 Cl        1 <0>        -0.0491
     32 H2          0.6047   -8.3573   -2.4066 H         1 <0>         0.0596
     33 H3          1.9241   -7.2812   -2.9255 H         1 <0>         0.0579
     34 H4          2.1222   -8.2981   -1.4782 H         1 <0>         0.0571
     35 H5          0.1315   -6.0044   -1.7832 H         1 <0>         0.0658
     36 H6          0.3295   -7.0214   -0.3359 H         1 <0>         0.0676
     37 H7          2.6351   -6.2487   -0.0568 H         1 <0>         0.0805
     38 H8          2.5419   -5.3253   -1.5756 H         1 <0>         0.0826
     39 H9         -0.5677   -3.3210    1.6608 H         1 <0>         0.1302
     40 H10        -1.9435   -5.0427    2.5893 H         1 <0>         0.1168
     41 H11         0.1657   -7.0062    1.8734 H         1 <0>         0.0663
     42 H12         0.4661   -6.4198    3.5269 H         1 <0>         0.0660
     43 H13        -1.0716   -7.2258    3.1341 H         1 <0>         0.0665
     44 H14         1.8051   -4.1555    4.0021 H         1 <0>         0.3979
     45 H15         4.7927   -2.7572    2.6392 H         1 <0>         0.0703
     46 H16         5.3096   -2.1976    4.2479 H         1 <0>         0.0620
     47 H17         4.8661   -3.9034    3.9990 H         1 <0>         0.0519
     48 H18         1.7690   -1.0918    3.3648 H         1 <0>         0.0667
     49 H19         3.1281   -0.4074    4.2882 H         1 <0>         0.0684
     50 H20         3.3794   -0.9660    2.6170 H         1 <0>         0.0658
     51 H21         3.1046   -3.6154    5.9358 H         1 <0>         0.0665
     52 H22         3.7857   -1.9753    6.0557 H         1 <0>         0.0789
     53 H23         0.7295   -3.7974    5.0958 H         1 <0>         0.0484
     54 H24        -0.4184   -2.4938    5.4846 H         1 <0>         0.0507
     55 H25         0.6447   -2.3492    4.0643 H         1 <0>         0.0736
     56 H26         2.1073   -1.8418    8.0448 H         1 <0>         0.0543
     57 H27         0.3657   -1.9357    7.6899 H         1 <0>         0.0555
     58 H28         1.3722   -3.4011    7.6017 H         1 <0>         0.0528
     59 H29         1.3506   -0.3354    4.6667 H         1 <0>         0.0752
     60 H30         0.8538   -0.0737    6.3558 H         1 <0>         0.0481
     61 H31         2.5821   -0.1056    5.9312 H         1 <0>         0.0568
     62 H32         2.2312   -3.4964   -2.4236 H         1 <0>         0.1082
     63 H33         0.5975   -4.1771   -2.6129 H         1 <0>         0.1071
     64 H34        -1.2775   -2.7720   -3.0978 H         1 <0>         0.1351
     65 H35        -2.0911   -0.5969   -3.9141 H         1 <0>         0.1391
     66 H36        -0.5874    1.3527   -3.9340 H         1 <0>         0.1418
@<TRIPOS>BOND
     1    1    2 1
     2    1   32 1
     3    1   33 1
     4    1   34 1
     5    2    3 1
     6    2   35 1
     7    2   36 1
     8    3    4 1
     9    3   37 1
    10    3   38 1
    11    4    5 1
    12    4   21 am
    13    5    6 1
    14    5    7 1
    15    5   10 1
    16    7    8 2
    17    7   39 1
    18    8    9 1
    19    8   40 1
    20    9   41 1
    21    9   42 1
    22    9   43 1
    23   10   11 2
    24   10   12 am
    25   12   13 1
    26   12   44 1
    27   13   14 1
    28   13   15 1
    29   13   16 1
    30   14   45 1
    31   14   46 1
    32   14   47 1
    33   15   48 1
    34   15   49 1
    35   15   50 1
    36   16   17 1
    37   16   51 1
    38   16   52 1
    39   17   18 1
    40   17   19 1
    41   17   20 1
    42   18   53 1
    43   18   54 1
    44   18   55 1
    45   19   56 1
    46   19   57 1
    47   19   58 1
    48   20   59 1
    49   20   60 1
    50   20   61 1
    51   21   22 2
    52   21   23 1
    53   23   24 1
    54   23   62 1
    55   23   63 1
    56   24   29 ar
    57   24   25 ar
    58   25   26 ar
    59   25   64 1
    60   26   27 ar
    61   26   65 1
    62   27   28 ar
    63   27   66 1
    64   28   29 ar
    65   28   31 1
    66   29   30 1
@<TRIPOS>MOLECULE
ZINC40202704
   60    63     0     0     0
SMALL
USER_CHARGES

@<TRIPOS>ATOM
      1 C1         -0.0187    1.5258    0.0104 C.3       1 <0>        -0.1457
      2 C2          0.0021   -0.0041    0.0020 C.3       1 <0>        -0.0602
      3 C3          0.7421   -0.5109    1.2415 C.3       1 <0>        -0.1451
      4 C4         -1.4117   -0.5257    0.0127 C.ar      1 <0>        -0.0619
      5 C5         -2.2591   -0.2043    1.0565 C.ar      1 <0>        -0.1128
      6 C6         -3.5560   -0.6827    1.0663 C.ar      1 <0>        -0.0927
      7 C7         -4.0056   -1.4823    0.0321 C.ar      1 <0>        -0.1231
      8 C8         -3.1585   -1.8029   -1.0121 C.ar      1 <0>        -0.0990
      9 C9         -1.8629   -1.3209   -1.0241 C.ar      1 <0>        -0.1172
     10 C10        -5.4191   -2.0047    0.0433 C.3       1 <0>         0.1512
     11 N1         -6.2976   -1.0510   -0.6384 N.pl3     1 <0>        -0.4796
     12 C11        -6.9682    0.0054   -0.0549 C.ar      1 <0>         0.0548
     13 C12        -7.0521    0.5009    1.2393 C.ar      1 <0>        -0.1112
     14 C13        -7.8336    1.6066    1.4977 C.ar      1 <0>        -0.0993
     15 C14        -8.5362    2.2261    0.4738 C.ar      1 <0>        -0.1284
     16 C15        -8.4660    1.7523   -0.8055 C.ar      1 <0>        -0.0622
     17 C16        -7.6793    0.6333   -1.0913 C.ar      1 <0>         0.0461
     18 N2         -7.4119   -0.0574   -2.2294 N.2       1 <0>        -0.4830
     19 C17        -6.5993   -1.0385   -1.9649 C.2       1 <0>         0.2872
     20 C18        -6.0720   -2.0202   -2.9794 C.3       1 <0>        -0.0572
     21 C19        -7.0222   -3.2156   -3.0742 C.3       1 <0>         0.1271
     22 N3         -6.5096   -4.1699   -4.0604 N.am      1 <0>        -0.7331
     23 C20        -7.1870   -5.3073   -4.3130 C.2       1 <0>         0.5187
     24 O1         -8.2211   -5.5408   -3.7237 O.2       1 <0>        -0.5209
     25 C21        -6.6597   -6.2890   -5.3275 C.3       1 <0>        -0.1070
     26 C22        -7.5957   -7.4664   -5.4208 C.ar      1 <0>        -0.0617
     27 C23        -7.3523   -8.6039   -4.6740 C.ar      1 <0>        -0.0954
     28 C24        -8.2106   -9.6839   -4.7595 C.ar      1 <0>        -0.1141
     29 C25        -9.3131   -9.6273   -5.5919 C.ar      1 <0>        -0.1052
     30 C26        -9.5575   -8.4907   -6.3390 C.ar      1 <0>        -0.1099
     31 C27        -8.7017   -7.4070   -6.2495 C.ar      1 <0>        -0.0193
     32 Cl1        -9.0116   -5.9763   -7.1827 Cl        1 <0>        -0.0670
     33 H1          1.0039    1.9031    0.0027 H         1 <0>         0.0608
     34 H2         -0.5459    1.8868   -0.8726 H         1 <0>         0.0561
     35 H3         -0.5289    1.8773    0.9072 H         1 <0>         0.0571
     36 H4          0.5123   -0.3556   -0.8948 H         1 <0>         0.0791
     37 H5          0.2319   -0.1594    2.1383 H         1 <0>         0.0571
     38 H6          0.7568   -1.6008    1.2356 H         1 <0>         0.0565
     39 H7          1.7647   -0.1336    1.2338 H         1 <0>         0.0606
     40 H8         -1.9079    0.4204    1.8645 H         1 <0>         0.1246
     41 H9         -4.2179   -0.4322    1.8822 H         1 <0>         0.1213
     42 H10        -3.5096   -2.4278   -1.8199 H         1 <0>         0.1218
     43 H11        -1.2022   -1.5684   -1.8418 H         1 <0>         0.1252
     44 H12        -5.4557   -2.9647   -0.4717 H         1 <0>         0.1013
     45 H13        -5.7512   -2.1322    1.0737 H         1 <0>         0.1003
     46 H14        -6.5078    0.0220    2.0399 H         1 <0>         0.1194
     47 H15        -7.8999    1.9932    2.5040 H         1 <0>         0.1300
     48 H16        -9.1450    3.0915    0.6906 H         1 <0>         0.1298
     49 H17        -9.0175    2.2417   -1.5947 H         1 <0>         0.1291
     50 H18        -6.0012   -1.5342   -3.9525 H         1 <0>         0.1099
     51 H19        -5.0844   -2.3645   -2.6726 H         1 <0>         0.0908
     52 H20        -7.0929   -3.7015   -2.1010 H         1 <0>         0.0685
     53 H21        -8.0098   -2.8712   -3.3810 H         1 <0>         0.0803
     54 H22        -5.6826   -3.9832   -4.5317 H         1 <0>         0.4023
     55 H23        -6.5890   -5.8031   -6.3006 H         1 <0>         0.1096
     56 H24        -5.6721   -6.6333   -5.0207 H         1 <0>         0.1087
     57 H25        -6.4910   -8.6489   -4.0239 H         1 <0>         0.1301
     58 H26        -8.0198  -10.5726   -4.1761 H         1 <0>         0.1302
     59 H27        -9.9832  -10.4716   -5.6586 H         1 <0>         0.1327
     60 H28       -10.4185   -8.4466   -6.9895 H         1 <0>         0.1342
@<TRIPOS>BOND
     1    1    2 1
     2    1   33 1
     3    1   34 1
     4    1   35 1
     5    2    3 1
     6    2    4 1
     7    2   36 1
     8    3   37 1
     9    3   38 1
    10    3   39 1
    11    4    9 ar
    12    4    5 ar
    13    5    6 ar
    14    5   40 1
    15    6    7 ar
    16    6   41 1
    17    7    8 ar
    18    7   10 1
    19    8    9 ar
    20    8   42 1
    21    9   43 1
    22   10   11 1
    23   10   44 1
    24   10   45 1
    25   11   19 1
    26   11   12 1
    27   12   17 ar
    28   12   13 ar
    29   13   14 ar
    30   13   46 1
    31   14   15 ar
    32   14   47 1
    33   15   16 ar
    34   15   48 1
    35   16   17 ar
    36   16   49 1
    37   17   18 1
    38   18   19 2
    39   19   20 1
    40   20   21 1
    41   20   50 1
    42   20   51 1
    43   21   22 1
    44   21   52 1
    45   21   53 1
    46   22   23 am
    47   22   54 1
    48   23   24 2
    49   23   25 1
    50   25   26 1
    51   25   55 1
    52   25   56 1
    53   26   31 ar
    54   26   27 ar
    55   27   28 ar
    56   27   57 1
    57   28   29 ar
    58   28   58 1
    59   29   30 ar
    60   29   59 1
    61   30   31 ar
    62   30   60 1
    63   31   32 1
@<TRIPOS>MOLECULE
ZINC04844005
   38    39     0     0     0
SMALL
USER_CHARGES
3-chloro-N-(4-nitrophenyl)-2-phenylsulfanyl-butanamide
@<TRIPOS>ATOM
      1 C1         -2.6800    1.7424    1.7498 C.3       1 <0>        -0.1638
      2 C2         -4.0089    2.3982    1.3692 C.3       1 <0>         0.0088
      3 H1         -4.8288    1.7179    1.5996 H         1 <0>         0.1177
      4 C3         -4.0122    2.7122   -0.1282 C.3       1 <0>        -0.1269
      5 H2         -3.7941    1.8042   -0.6904 H         1 <0>         0.1324
      6 C4         -5.3669    3.2375   -0.5283 C.2       1 <0>         0.5121
      7 O1         -5.5400    4.4307   -0.6599 O.2       1 <0>        -0.4618
      8 N1         -6.3861    2.3813   -0.7399 N.am      1 <0>        -0.6727
      9 C5         -7.6163    2.8593   -1.2046 C.ar      1 <0>         0.2002
     10 C6         -8.3651    2.1021   -2.0960 C.ar      1 <0>        -0.1438
     11 C7         -9.5819    2.5740   -2.5480 C.ar      1 <0>        -0.0327
     12 C8        -10.0490    3.8044   -2.1236 C.ar      1 <0>        -0.0598
     13 C9         -9.3030    4.5633   -1.2405 C.ar      1 <0>        -0.0317
     14 C10        -8.0883    4.0944   -0.7800 C.ar      1 <0>        -0.1205
     15 N2        -11.3504    4.3100   -2.6152 N.pl3     1 <0>         0.0293
     16 O2        -11.7632    5.3934   -2.2419 O.2       1 <0>        -0.1583
     17 O3        -12.0085    3.6426   -3.3930 O.3       1 <0>        -0.1601
     18 S1         -2.7486    3.9634   -0.4865 S.3       1 <0>        -0.0054
     19 C11        -2.7063    4.0348   -2.2465 C.ar      1 <0>        -0.0962
     20 C12        -3.4500    3.1330   -2.9983 C.ar      1 <0>        -0.1347
     21 C13        -3.4100    3.1884   -4.3774 C.ar      1 <0>        -0.0981
     22 C14        -2.6395    4.1466   -5.0106 C.ar      1 <0>        -0.1217
     23 C15        -1.9022    5.0489   -4.2657 C.ar      1 <0>        -0.0965
     24 C16        -1.9333    4.9963   -2.8863 C.ar      1 <0>        -0.0954
     25 Cl1        -4.2147    3.9260    2.3042 Cl        1 <0>        -0.1403
     26 H3         -1.8573    2.4027    1.4753 H         1 <0>         0.0846
     27 H4         -2.6583    1.5625    2.8246 H         1 <0>         0.0821
     28 H5         -2.5776    0.7950    1.2206 H         1 <0>         0.0807
     29 H6         -6.2667    1.4338   -0.5699 H         1 <0>         0.4177
     30 H7         -7.9987    1.1432   -2.4315 H         1 <0>         0.1512
     31 H8        -10.1671    1.9834   -3.2375 H         1 <0>         0.1594
     32 H9         -9.6705    5.5239   -0.9109 H         1 <0>         0.1588
     33 H10        -7.5063    4.6874   -0.0900 H         1 <0>         0.1624
     34 H11        -4.0553    2.3873   -2.5044 H         1 <0>         0.1099
     35 H12        -3.9845    2.4853   -4.9623 H         1 <0>         0.1249
     36 H13        -2.6139    4.1906   -6.0894 H         1 <0>         0.1272
     37 H14        -1.3017    5.7959   -4.7636 H         1 <0>         0.1309
     38 H15        -1.3578    5.7017   -2.3052 H         1 <0>         0.1299
@<TRIPOS>BOND
     1    1    2 1
     2    1   26 1
     3    1   27 1
     4    1   28 1
     5    2    3 1
     6    2    4 1
     7    2   25 1
     8    4    5 1
     9    4    6 1
    10    4   18 1
    11    6    7 2
    12    6    8 am
    13    8    9 1
    14    8   29 1
    15    9   14 ar
    16    9   10 ar
    17   10   11 ar
    18   10   30 1
    19   11   12 ar
    20   11   31 1
    21   12   13 ar
    22   12   15 1
    23   13   14 ar
    24   13   32 1
    25   14   33 1
    26   15   16 2
    27   15   17 1
    28   18   19 1
    29   19   24 ar
    30   19   20 ar
    31   20   21 ar
    32   20   34 1
    33   21   22 ar
    34   21   35 1
    35   22   23 ar
    36   22   36 1
    37   23   24 ar
    38   23   37 1
    39   24   38 1
@<TRIPOS>MOLECULE
ZINC11756102
   46    48     0     0     0
SMALL
USER_CHARGES
2-chloro-N-[2-(1-cyclohexenyl)ethyl]-6,7-dimethoxy-quinazolin-4-amine
@<TRIPOS>ATOM
      1 C1         -6.8055   -3.6597    0.8073 C.3       1 <0>         0.0217
      2 O1         -7.3860   -4.0937   -0.4243 O.3       1 <0>        -0.2999
      3 C2         -6.6942   -3.8210   -1.5629 C.ar      1 <0>         0.1075
      4 C3         -5.5012   -3.1599   -1.4864 C.ar      1 <0>        -0.1405
      5 C4         -4.7850   -2.8842   -2.6574 C.ar      1 <0>        -0.1921
      6 C5         -5.3059   -3.2811   -3.9138 C.ar      1 <0>         0.2134
      7 C6         -6.5305   -3.9574   -3.9688 C.ar      1 <0>        -0.1829
      8 C7         -7.2129   -4.2217   -2.8018 C.ar      1 <0>         0.1670
      9 O2         -8.4016   -4.8774   -2.8523 O.3       1 <0>        -0.2964
     10 C8         -8.8776   -5.2592   -4.1445 C.3       1 <0>         0.0195
     11 N1         -4.6024   -2.9993   -5.0219 N.ar      1 <0>        -0.5367
     12 C9         -3.4568   -2.3632   -4.9391 C.ar      1 <0>         0.4177
     13 N2         -2.9343   -1.9689   -3.7873 N.ar      1 <0>        -0.5846
     14 C10        -3.5478   -2.1970   -2.6338 C.ar      1 <0>         0.4918
     15 N3         -2.9919   -1.7806   -1.4419 N.pl3     1 <0>        -0.6936
     16 C11        -1.7074   -1.0762   -1.4393 C.3       1 <0>         0.1298
     17 C12        -1.3193   -0.7287   -0.0007 C.3       1 <0>        -0.1005
     18 C13         0.0021   -0.0041    0.0020 C.2       1 <0>        -0.1219
     19 C14        -0.0155    1.2902    0.0091 C.2       1 <0>        -0.1435
     20 C15         1.2160    2.1479    0.0020 C.3       1 <0>        -0.0920
     21 C16         2.4370    1.3203    0.4091 C.3       1 <0>        -0.1216
     22 C17         2.4500    0.0325   -0.4242 C.3       1 <0>        -0.1212
     23 C18         1.2564   -0.8279   -0.0042 C.3       1 <0>        -0.0834
     24 Cl1        -2.5882   -2.0244   -6.4035 Cl        1 <0>         0.0216
     25 H1         -6.6847   -2.5766    0.7903 H         1 <0>         0.0572
     26 H2         -7.4573   -3.9397    1.6348 H         1 <0>         0.1068
     27 H3         -5.8315   -4.1319    0.9361 H         1 <0>         0.0573
     28 H4         -5.1101   -2.8557   -0.5268 H         1 <0>         0.1407
     29 H5         -6.9370   -4.2699   -4.9193 H         1 <0>         0.1577
     30 H6         -9.0072   -4.3699   -4.7613 H         1 <0>         0.0627
     31 H7         -8.1551   -5.9259   -4.6154 H         1 <0>         0.0627
     32 H8         -9.8334   -5.7731   -4.0424 H         1 <0>         0.1076
     33 H9         -3.4516   -1.9542   -0.6056 H         1 <0>         0.4118
     34 H10        -1.7941   -0.1602   -2.0236 H         1 <0>         0.0755
     35 H11        -0.9414   -1.7158   -1.8778 H         1 <0>         0.0759
     36 H12        -1.2325   -1.6447    0.5836 H         1 <0>         0.0760
     37 H13        -2.0853   -0.0891    0.4379 H         1 <0>         0.0745
     38 H14        -0.9762    1.7836    0.0163 H         1 <0>         0.1030
     39 H15         1.3699    2.5506   -0.9991 H         1 <0>         0.0749
     40 H16         1.0869    2.9712    0.7046 H         1 <0>         0.0716
     41 H17         2.3739    1.0706    1.4683 H         1 <0>         0.0636
     42 H18         3.3480    1.8882    0.2202 H         1 <0>         0.0655
     43 H19         3.3764   -0.5123   -0.2424 H         1 <0>         0.0658
     44 H20         2.3707    0.2770   -1.4835 H         1 <0>         0.0657
     45 H21         1.4320   -1.2262    0.9951 H         1 <0>         0.0727
     46 H22         1.1422   -1.6545   -0.7055 H         1 <0>         0.0716
@<TRIPOS>BOND
     1    1    2 1
     2    1   25 1
     3    1   26 1
     4    1   27 1
     5    2    3 1
     6    3    8 ar
     7    3    4 ar
     8    4    5 ar
     9    4   28 1
    10    5   14 ar
    11    5    6 ar
    12    6    7 ar
    13    6   11 ar
    14    7    8 ar
    15    7   29 1
    16    8    9 1
    17    9   10 1
    18   10   30 1
    19   10   31 1
    20   10   32 1
    21   11   12 ar
    22   12   13 ar
    23   12   24 1
    24   13   14 ar
    25   14   15 1
    26   15   16 1
    27   15   33 1
    28   16   17 1
    29   16   34 1
    30   16   35 1
    31   17   18 1
    32   17   36 1
    33   17   37 1
    34   18   23 1
    35   18   19 2
    36   19   20 1
    37   19   38 1
    38   20   21 1
    39   20   39 1
    40   20   40 1
    41   21   22 1
    42   21   41 1
    43   21   42 1
    44   22   23 1
    45   22   43 1
    46   22   44 1
    47   23   45 1
    48   23   46 1
@<TRIPOS>MOLECULE
ZINC35156984
   42    44     0     0     0
SMALL
USER_CHARGES

@<TRIPOS>ATOM
      1 C1         -0.0187    1.5258    0.0104 C.3       1 <0>        -0.1536
      2 C2          0.0021   -0.0041    0.0020 C.3       1 <0>         0.0602
      3 O1          0.6709   -0.4649   -1.1737 O.3       1 <0>        -0.3462
      4 C3          0.7755   -1.7935   -1.3341 C.2       1 <0>         0.4626
      5 O2          0.3143   -2.5404   -0.5039 O.2       1 <0>        -0.4928
      6 C4          1.4679   -2.3535   -2.5498 C.3       1 <0>         0.1227
      7 N1          1.4501   -3.8172   -2.4911 N.pl3     1 <0>        -0.7159
      8 C5          2.0356   -4.5635   -3.5140 C.2       1 <0>         0.2657
      9 C6          2.0915   -5.9389   -3.5997 C.2       1 <0>         0.0385
     10 N2          2.7388   -6.2596   -4.7351 N.2       1 <0>        -0.4341
     11 C7          3.0910   -5.1505   -5.3646 C.2       1 <0>         0.2026
     12 N3          2.6592   -4.0721   -4.6271 N.pl3     1 <0>        -0.3808
     13 C8          2.8937   -2.7954   -5.0647 C.2       1 <0>         0.0460
     14 C9          3.5467   -2.5766   -6.2245 C.2       1 <0>        -0.0460
     15 C10         3.9965   -3.6599   -7.0019 C.2       1 <0>        -0.1154
     16 C11         3.7794   -4.9326   -6.5771 C.2       1 <0>        -0.0392
     17 Cl1         3.8330   -0.9507   -6.7611 Cl        1 <0>        -0.0333
     18 C12         1.5365   -6.8959   -2.6141 C.ar      1 <0>        -0.0054
     19 C13         1.5523   -6.5880   -1.2539 C.ar      1 <0>        -0.1131
     20 C14         1.0335   -7.4831   -0.3409 C.ar      1 <0>        -0.1138
     21 C15         0.4984   -8.6837   -0.7723 C.ar      1 <0>        -0.0839
     22 C16         0.4799   -8.9947   -2.1202 C.ar      1 <0>        -0.1171
     23 C17         0.9909   -8.1055   -3.0433 C.ar      1 <0>        -0.0859
     24 C18        -0.0661   -9.6570    0.2302 C.3       1 <0>        -0.1168
     25 H1          1.0039    1.9031    0.0027 H         1 <0>         0.0687
     26 H2         -0.5459    1.8868   -0.8726 H         1 <0>         0.0687
     27 H3         -0.5289    1.8773    0.9072 H         1 <0>         0.0837
     28 H4          0.5293   -0.3651    0.8851 H         1 <0>         0.0720
     29 H5         -1.0205   -0.3814    0.0098 H         1 <0>         0.0720
     30 H6          0.9501   -2.0196   -3.4490 H         1 <0>         0.1041
     31 H7          2.4999   -2.0034   -2.5737 H         1 <0>         0.1049
     32 H8          1.0311   -4.2674   -1.7410 H         1 <0>         0.4314
     33 H9          2.5525   -1.9566   -4.4761 H         1 <0>         0.1686
     34 H10         4.5187   -3.4804   -7.9301 H         1 <0>         0.1532
     35 H11         4.1199   -5.7698   -7.1683 H         1 <0>         0.1634
     36 H12         1.9701   -5.6512   -0.9160 H         1 <0>         0.1198
     37 H13         1.0455   -7.2460    0.7127 H         1 <0>         0.1250
     38 H14         0.0612   -9.9337   -2.4510 H         1 <0>         0.1255
     39 H15         0.9719   -8.3474   -4.0957 H         1 <0>         0.1287
     40 H16        -1.1250   -9.4484    0.3827 H         1 <0>         0.0713
     41 H17         0.0537  -10.6740   -0.1434 H         1 <0>         0.0674
     42 H18         0.4647   -9.5528    1.1765 H         1 <0>         0.0667
@<TRIPOS>BOND
     1    1    2 1
     2    1   25 1
     3    1   26 1
     4    1   27 1
     5    2    3 1
     6    2   28 1
     7    2   29 1
     8    3    4 1
     9    4    5 2
    10    4    6 1
    11    6    7 1
    12    6   30 1
    13    6   31 1
    14    7    8 1
    15    7   32 1
    16    8   12 1
    17    8    9 2
    18    9   10 1
    19    9   18 1
    20   10   11 2
    21   11   16 1
    22   11   12 1
    23   12   13 1
    24   13   14 2
    25   13   33 1
    26   14   15 1
    27   14   17 1
    28   15   16 2
    29   15   34 1
    30   16   35 1
    31   18   23 ar
    32   18   19 ar
    33   19   20 ar
    34   19   36 1
    35   20   21 ar
    36   20   37 1
    37   21   22 ar
    38   21   24 1
    39   22   23 ar
    40   22   38 1
    41   23   39 1
    42   24   40 1
    43   24   41 1
    44   24   42 1
@<TRIPOS>MOLECULE
ZINC49682591
   47    49     0     0     0
SMALL
USER_CHARGES

@<TRIPOS>ATOM
      1 C1         -1.6021    2.1170   -1.1955 C.3       1 <0>        -0.0659
      2 C2         -1.3915    0.6254   -1.1534 C.2       1 <0>         0.2512
      3 N1         -2.3339   -0.2530   -0.9864 N.2       1 <0>        -0.4831
      4 C3         -1.7819   -1.4965   -1.0024 C.ar      1 <0>         0.0264
      5 C4         -2.3011   -2.7858   -0.8729 C.ar      1 <0>        -0.0582
      6 C5         -1.4566   -3.8714   -0.9354 C.ar      1 <0>        -0.0833
      7 C6         -0.0943   -3.6915   -1.1257 C.ar      1 <0>        -0.0886
      8 C7          0.4325   -2.4236   -1.2548 C.ar      1 <0>        -0.0879
      9 C8         -0.4036   -1.3189   -1.1952 C.ar      1 <0>         0.0032
     10 O1         -0.2042    0.0142   -1.2891 O.3       1 <0>        -0.2148
     11 C9         -2.0156   -5.2639   -0.7957 C.3       1 <0>        -0.0621
     12 C10        -2.3961   -5.8016   -2.1767 C.3       1 <0>        -0.1351
     13 C11        -2.9551   -7.1941   -2.0370 C.2       1 <0>         0.5128
     14 O2         -3.0408   -7.7060   -0.9408 O.2       1 <0>        -0.5194
     15 N2         -3.3598   -7.8705   -3.1302 N.am      1 <0>        -0.6735
     16 C12        -3.7855   -9.2003   -3.0135 C.ar      1 <0>         0.1014
     17 C13        -3.4983  -10.1124   -4.0201 C.ar      1 <0>        -0.1022
     18 C14        -3.9176  -11.4230   -3.9042 C.ar      1 <0>        -0.1938
     19 C15        -4.6261  -11.8282   -2.7825 C.ar      1 <0>         0.1218
     20 C16        -4.9138  -10.9173   -1.7766 C.ar      1 <0>        -0.1359
     21 C17        -4.4896   -9.6079   -1.8884 C.ar      1 <0>        -0.0772
     22 O3         -5.0391  -13.1187   -2.6692 O.3       1 <0>        -0.3101
     23 C18        -4.6103  -14.0286   -3.6843 C.3       1 <0>         0.0764
     24 C19        -4.6029  -15.4520   -3.1232 C.3       1 <0>        -0.1502
     25 C20        -5.5695  -13.9544   -4.8739 C.3       1 <0>        -0.1813
     26 H1         -0.6451    2.6148   -1.3516 H         1 <0>         0.0932
     27 H2         -2.2787    2.3655   -2.0132 H         1 <0>         0.1038
     28 H3         -2.0350    2.4496   -0.2520 H         1 <0>         0.1040
     29 H4         -3.3609   -2.9311   -0.7239 H         1 <0>         0.1368
     30 H5          0.5584   -4.5506   -1.1728 H         1 <0>         0.1421
     31 H6          1.4942   -2.2913   -1.4021 H         1 <0>         0.1370
     32 H7         -1.2643   -5.9137   -0.3471 H         1 <0>         0.0874
     33 H8         -2.9003   -5.2381   -0.1595 H         1 <0>         0.0860
     34 H9         -3.1474   -5.1517   -2.6253 H         1 <0>         0.0998
     35 H10        -1.5114   -5.8274   -2.8129 H         1 <0>         0.1004
     36 H11        -3.3565   -7.4368   -3.9978 H         1 <0>         0.4108
     37 H12        -2.9473   -9.7969   -4.8938 H         1 <0>         0.1278
     38 H13        -3.6943  -12.1325   -4.6872 H         1 <0>         0.1335
     39 H14        -5.4660  -11.2333   -0.9039 H         1 <0>         0.1343
     40 H15        -4.7095   -8.9000   -1.1029 H         1 <0>         0.1449
     41 H16        -3.6053  -13.7615   -4.0107 H         1 <0>         0.0733
     42 H17        -5.6080  -15.7191   -2.7967 H         1 <0>         0.0678
     43 H18        -4.2758  -16.1460   -3.8974 H         1 <0>         0.0774
     44 H19        -3.9195  -15.5048   -2.2756 H         1 <0>         0.0655
     45 H20        -5.2425  -14.6484   -5.6482 H         1 <0>         0.0725
     46 H21        -6.5746  -14.2215   -4.5475 H         1 <0>         0.0684
     47 H22        -5.5748  -12.9404   -5.2737 H         1 <0>         0.0626
@<TRIPOS>BOND
     1    1    2 1
     2    1   26 1
     3    1   27 1
     4    1   28 1
     5    2   10 1
     6    2    3 2
     7    3    4 1
     8    4    9 ar
     9    4    5 ar
    10    5    6 ar
    11    5   29 1
    12    6    7 ar
    13    6   11 1
    14    7    8 ar
    15    7   30 1
    16    8    9 ar
    17    8   31 1
    18    9   10 1
    19   11   12 1
    20   11   32 1
    21   11   33 1
    22   12   13 1
    23   12   34 1
    24   12   35 1
    25   13   14 2
    26   13   15 am
    27   15   16 1
    28   15   36 1
    29   16   21 ar
    30   16   17 ar
    31   17   18 ar
    32   17   37 1
    33   18   19 ar
    34   18   38 1
    35   19   20 ar
    36   19   22 1
    37   20   21 ar
    38   20   39 1
    39   21   40 1
    40   22   23 1
    41   23   24 1
    42   23   25 1
    43   23   41 1
    44   24   42 1
    45   24   43 1
    46   24   44 1
    47   25   45 1
    48   25   46 1
    49   25   47 1
@<TRIPOS>MOLECULE
ZINC65537952
   43    46     0     0     0
SMALL
USER_CHARGES

@<TRIPOS>ATOM
      1 C1         -0.1038    1.3533    0.0303 C.2       1 <0>        -0.1563
      2 C2         -0.0429    0.0448    0.0116 C.2       1 <0>        -0.1890
      3 C3         -1.3115   -0.7687    0.0149 C.3       1 <0>         0.1317
      4 N1         -1.3080   -1.6835   -1.1293 N.pl3     1 <0>        -0.4614
      5 C4         -1.8848   -1.4248   -2.3268 C.2       1 <0>         0.1499
      6 C5         -1.6973   -2.4832   -3.1678 C.2       1 <0>        -0.2269
      7 C6         -0.9299   -3.4883   -2.4091 C.ar      1 <0>        -0.0569
      8 C7         -0.7112   -2.9275   -1.1404 C.ar      1 <0>         0.0867
      9 C8          0.0016   -3.6497   -0.1893 C.ar      1 <0>        -0.1209
     10 C9          0.4879   -4.9015   -0.4987 C.ar      1 <0>        -0.0982
     11 C10         0.2743   -5.4523   -1.7537 C.ar      1 <0>        -0.1330
     12 C11        -0.4368   -4.7558   -2.7068 C.ar      1 <0>        -0.0699
     13 C12        -2.1671   -2.5985   -4.5530 C.2       1 <0>         0.5397
     14 O1         -1.9294   -3.6043   -5.1939 O.2       1 <0>        -0.4918
     15 O2         -2.8623   -1.5890   -5.1156 O.3       1 <0>        -0.3001
     16 C13        -3.1893   -1.6946   -6.4300 C.ar      1 <0>         0.0995
     17 C14        -4.2401   -2.5153   -6.8186 C.ar      1 <0>        -0.1142
     18 C15        -4.5749   -2.6250   -8.1512 C.ar      1 <0>        -0.0622
     19 C16        -3.8562   -1.9098   -9.1106 C.ar      1 <0>        -0.0105
     20 C17        -2.8006   -1.0860   -8.7162 C.ar      1 <0>        -0.0981
     21 C18        -2.4755   -0.9771   -7.3811 C.ar      1 <0>        -0.1135
     22 C19        -4.2117   -2.0251  -10.5411 C.2       1 <0>         0.2413
     23 N2         -3.5881   -1.3868  -11.5732 N.pl3     1 <0>        -0.5647
     24 H1         -2.8357   -0.7784  -11.5051 H         1 <0>         0.4207
     25 C20        -4.2257   -1.7684  -12.7237 C.2       1 <0>        -0.0417
     26 C21        -5.2091   -2.6188  -12.3668 C.2       1 <0>        -0.0234
     27 N3         -5.1792   -2.7646  -11.0367 N.2       1 <0>        -0.4708
     28 H2          0.8053    1.9363    0.0280 H         1 <0>         0.1071
     29 H3         -1.0632    1.8491    0.0436 H         1 <0>         0.1026
     30 H4          0.9164   -0.4509   -0.0062 H         1 <0>         0.1171
     31 H5         -1.3723   -1.3432    0.9392 H         1 <0>         0.1018
     32 H6         -2.1709   -0.1019   -0.0556 H         1 <0>         0.1016
     33 H7         -2.4137   -0.5174   -2.5785 H         1 <0>         0.1864
     34 H8          0.1741   -3.2298    0.7907 H         1 <0>         0.1230
     35 H9          1.0409   -5.4588    0.2429 H         1 <0>         0.1294
     36 H10         0.6617   -6.4340   -1.9829 H         1 <0>         0.1280
     37 H11        -0.6009   -5.1862   -3.6836 H         1 <0>         0.1333
     38 H12        -4.7955   -3.0685   -6.0757 H         1 <0>         0.1361
     39 H13        -5.3920   -3.2636   -8.4526 H         1 <0>         0.1460
     40 H14        -2.2420   -0.5315   -9.4557 H         1 <0>         0.1270
     41 H15        -1.6618   -0.3365   -7.0747 H         1 <0>         0.1371
     42 H16        -3.9863   -1.4483  -13.7271 H         1 <0>         0.1823
     43 H17        -5.9007   -3.1033  -13.0401 H         1 <0>         0.1753
@<TRIPOS>BOND
     1    1    2 2
     2    1   28 1
     3    1   29 1
     4    2    3 1
     5    2   30 1
     6    3    4 1
     7    3   31 1
     8    3   32 1
     9    4    8 1
    10    4    5 1
    11    5    6 2
    12    5   33 1
    13    6    7 1
    14    6   13 1
    15    7   12 ar
    16    7    8 ar
    17    8    9 ar
    18    9   10 ar
    19    9   34 1
    20   10   11 ar
    21   10   35 1
    22   11   12 ar
    23   11   36 1
    24   12   37 1
    25   13   14 2
    26   13   15 1
    27   15   16 1
    28   16   21 ar
    29   16   17 ar
    30   17   18 ar
    31   17   38 1
    32   18   19 ar
    33   18   39 1
    34   19   20 ar
    35   19   22 1
    36   20   21 ar
    37   20   40 1
    38   21   41 1
    39   22   27 2
    40   22   23 1
    41   23   24 1
    42   23   25 1
    43   25   26 2
    44   25   42 1
    45   26   27 1
    46   26   43 1
@<TRIPOS>MOLECULE
ZINC02635993
   40    42     0     0     0
SMALL
USER_CHARGES
3-(4-chlorophenyl)-5-[2-(4-methoxyphenoxy)ethylsulfanyl]-1,3,4-thiadiazole-2-thione
@<TRIPOS>ATOM
      1 C1          2.5128   -2.6722   -0.0362 C.3       1 <0>         0.0265
      2 O1          1.2309   -2.0408   -0.0206 O.3       1 <0>        -0.3167
      3 C2          1.2125   -0.6811   -0.0132 C.ar      1 <0>         0.0960
      4 C3          0.0021   -0.0041    0.0020 C.ar      1 <0>        -0.1107
      5 C4         -0.0167    1.3771    0.0096 C.ar      1 <0>        -0.1055
      6 C5          1.1749    2.0869    0.0020 C.ar      1 <0>         0.0902
      7 C6          2.3853    1.4098   -0.0126 C.ar      1 <0>        -0.1667
      8 C7          2.4041    0.0286   -0.0202 C.ar      1 <0>        -0.1687
      9 O2          1.1565    3.4465    0.0091 O.3       1 <0>        -0.3072
     10 C8          2.4208    4.1126    0.0006 C.3       1 <0>         0.0795
     11 C9          2.1998    5.6265    0.0103 C.3       1 <0>        -0.1551
     12 S1          3.8011    6.4701   -0.0005 S.3       1 <0>         0.1350
     13 C10         3.2632    8.1479    0.0130 C.2       1 <0>         0.0626
     14 N1          3.9802    9.2430    0.0172 N.2       1 <0>        -0.2392
     15 N2          3.3703   10.4764    0.0242 N.pl3     1 <0>        -0.3028
     16 C11         2.0148   10.5317    0.0375 C.2       1 <0>         0.2357
     17 S2          0.9822   11.8971    0.0546 S.2       1 <0>        -0.3572
     18 S3          1.5988    8.7944    0.0324 S.3       1 <0>         0.0668
     19 C12         4.1326   11.6498    0.0226 C.ar      1 <0>         0.1152
     20 C13         3.6819   12.7715   -0.6620 C.ar      1 <0>        -0.0795
     21 C14         4.4337   13.9298   -0.6574 C.ar      1 <0>        -0.0929
     22 C15         5.6404   13.9704    0.0191 C.ar      1 <0>        -0.0199
     23 C16         6.0944   12.8528    0.6976 C.ar      1 <0>        -0.1012
     24 C17         5.3442   11.6934    0.7008 C.ar      1 <0>        -0.0789
     25 Cl1         6.5867   15.4258    0.0162 Cl        1 <0>        -0.0542
     26 H1          3.0573   -2.3670   -0.9298 H         1 <0>         0.0554
     27 H2          3.0742   -2.3765    0.8500 H         1 <0>         0.0554
     28 H3          2.3846   -3.7546   -0.0408 H         1 <0>         0.1018
     29 H4         -0.9258   -0.5567    0.0075 H         1 <0>         0.1409
     30 H5         -0.9592    1.9043    0.0169 H         1 <0>         0.1407
     31 H6          3.3132    1.9625   -0.0185 H         1 <0>         0.1310
     32 H7          3.3466   -0.4986   -0.0313 H         1 <0>         0.1327
     33 H8          2.9900    3.8228    0.8838 H         1 <0>         0.0789
     34 H9          2.9734    3.8318   -0.8960 H         1 <0>         0.0790
     35 H10         1.6305    5.9162   -0.8730 H         1 <0>         0.1167
     36 H11         1.6472    5.9073    0.9069 H         1 <0>         0.1166
     37 H12         2.7426   12.7388   -1.1940 H         1 <0>         0.1598
     38 H13         4.0819   14.8034   -1.1860 H         1 <0>         0.1496
     39 H14         7.0364   12.8873    1.2246 H         1 <0>         0.1471
     40 H15         5.6992   10.8214    1.2298 H         1 <0>         0.1434
@<TRIPOS>BOND
     1    1    2 1
     2    1   26 1
     3    1   27 1
     4    1   28 1
     5    2    3 1
     6    3    8 ar
     7    3    4 ar
     8    4    5 ar
     9    4   29 1
    10    5    6 ar
    11    5   30 1
    12    6    7 ar
    13    6    9 1
    14    7    8 ar
    15    7   31 1
    16    8   32 1
    17    9   10 1
    18   10   11 1
    19   10   33 1
    20   10   34 1
    21   11   12 1
    22   11   35 1
    23   11   36 1
    24   12   13 1
    25   13   18 1
    26   13   14 2
    27   14   15 1
    28   15   16 1
    29   15   19 1
    30   16   17 2
    31   16   18 1
    32   19   24 ar
    33   19   20 ar
    34   20   21 ar
    35   20   37 1
    36   21   22 ar
    37   21   38 1
    38   22   23 ar
    39   22   25 1
    40   23   24 ar
    41   23   39 1
    42   24   40 1
@<TRIPOS>MOLECULE
ZINC09204980
   49    51     0     0     0
SMALL
USER_CHARGES
2-(4-chloro-3-methyl-phenoxy)-N-[(3-fluorophenyl)methyl]-N-(2-furylmethyl)propanamide
@<TRIPOS>ATOM
      1 C1         -6.6295    1.8476   -1.1771 C.3       1 <0>        -0.1238
      2 C2         -6.1200    0.4351   -1.0492 C.ar      1 <0>        -0.0320
      3 C3         -4.7618    0.1962   -0.9637 C.ar      1 <0>        -0.2051
      4 C4         -4.2932   -1.1043   -0.8503 C.ar      1 <0>         0.1396
      5 C5         -5.1901   -2.1622   -0.8132 C.ar      1 <0>        -0.1411
      6 C6         -6.5473   -1.9190   -0.8946 C.ar      1 <0>        -0.0627
      7 C7         -7.0127   -0.6211   -1.0125 C.ar      1 <0>        -0.0753
      8 Cl1        -8.7190   -0.3179   -1.1140 Cl        1 <0>        -0.0653
      9 O1         -2.9573   -1.3416   -0.7699 O.3       1 <0>        -0.2812
     10 C8         -2.0976   -0.2012   -0.7196 C.3       1 <0>         0.0662
     11 H1         -2.5843    0.5961   -0.1579 H         1 <0>         0.0958
     12 C9         -1.8068    0.2813   -2.1421 C.3       1 <0>        -0.1866
     13 C10        -0.8048   -0.5762   -0.0422 C.2       1 <0>         0.5251
     14 O2         -0.4201   -1.7262   -0.0638 O.2       1 <0>        -0.4978
     15 N1         -0.0760    0.3664    0.5878 N.am      1 <0>        -0.6008
     16 C11         1.2158    0.0167    1.1838 C.3       1 <0>         0.1542
     17 C12         1.0239   -0.3112    2.6421 C.ar      1 <0>        -0.0823
     18 C13         1.0280    0.7008    3.5843 C.ar      1 <0>        -0.1178
     19 C14         0.8474    0.4020    4.9217 C.ar      1 <0>        -0.0920
     20 C15         0.6728   -0.9100    5.3199 C.ar      1 <0>        -0.1482
     21 C16         0.6738   -1.9246    4.3780 C.ar      1 <0>         0.0983
     22 C17         0.8497   -1.6236    3.0378 C.ar      1 <0>        -0.1295
     23 F1          0.5038   -3.2074    4.7660 F         1 <0>        -0.1373
     24 C18        -0.5756    1.7407    0.6766 C.3       1 <0>         0.1814
     25 C19         0.2394    2.6308   -0.2260 C.2       1 <0>        -0.0426
     26 C20        -0.1415    3.0883   -1.4322 C.2       1 <0>        -0.1913
     27 C21         0.9209    3.8811   -1.9237 C.2       1 <0>        -0.2139
     28 C22         1.8875    3.8606   -0.9885 C.2       1 <0>        -0.0267
     29 O3          1.4668    3.1065    0.0401 O.3       1 <0>        -0.1705
     30 H2         -6.7998    2.2638   -0.1842 H         1 <0>         0.0797
     31 H3         -5.8920    2.4536   -1.7035 H         1 <0>         0.0721
     32 H4         -7.5652    1.8471   -1.7363 H         1 <0>         0.0780
     33 H5         -4.0654    1.0213   -0.9882 H         1 <0>         0.1362
     34 H6         -4.8272   -3.1753   -0.7212 H         1 <0>         0.1427
     35 H7         -7.2457   -2.7422   -0.8658 H         1 <0>         0.1426
     36 H8         -1.4534   -0.5556   -2.7445 H         1 <0>         0.0823
     37 H9         -2.7182    0.6863   -2.5819 H         1 <0>         0.0797
     38 H10        -1.0415    1.0569   -2.1133 H         1 <0>         0.0870
     39 H11         1.6313   -0.8492    0.6683 H         1 <0>         0.1013
     40 H12         1.9003    0.8596    1.0879 H         1 <0>         0.0972
     41 H13         1.1684    1.7258    3.2746 H         1 <0>         0.1293
     42 H14         0.8466    1.1937    5.6563 H         1 <0>         0.1349
     43 H15         0.5361   -1.1437    6.3654 H         1 <0>         0.1364
     44 H16         0.8502   -2.4142    2.3021 H         1 <0>         0.1403
     45 H17        -1.6204    1.7682    0.3670 H         1 <0>         0.1146
     46 H18        -0.4921    2.0919    1.7051 H         1 <0>         0.1009
     47 H19        -1.0788    2.8880   -1.9299 H         1 <0>         0.1514
     48 H20         0.9508    4.4027   -2.8689 H         1 <0>         0.1513
     49 H21         2.8384    4.3687   -1.0517 H         1 <0>         0.2055
@<TRIPOS>BOND
     1    1    2 1
     2    1   30 1
     3    1   31 1
     4    1   32 1
     5    2    7 ar
     6    2    3 ar
     7    3    4 ar
     8    3   33 1
     9    4    5 ar
    10    4    9 1
    11    5    6 ar
    12    5   34 1
    13    6    7 ar
    14    6   35 1
    15    7    8 1
    16    9   10 1
    17   10   11 1
    18   10   12 1
    19   10   13 1
    20   12   36 1
    21   12   37 1
    22   12   38 1
    23   13   14 2
    24   13   15 am
    25   15   16 1
    26   15   24 1
    27   16   17 1
    28   16   39 1
    29   16   40 1
    30   17   22 ar
    31   17   18 ar
    32   18   19 ar
    33   18   41 1
    34   19   20 ar
    35   19   42 1
    36   20   21 ar
    37   20   43 1
    38   21   22 ar
    39   21   23 1
    40   22   44 1
    41   24   25 1
    42   24   45 1
    43   24   46 1
    44   25   29 1
    45   25   26 2
    46   26   27 1
    47   26   47 1
    48   27   28 2
    49   27   48 1
    50   28   29 1
    51   28   49 1
@<TRIPOS>MOLECULE
ZINC05900007
   47    49     0     0     0
SMALL
USER_CHARGES
6-phenyl-2-[2-[(2R)-tetrahydropyran-2-yl]oxyethylsulfanyl]-4-(trifluoromethyl)pyridine-3-carbonitrile
@<TRIPOS>ATOM
      1 C1          4.9451   -3.4935   -6.4395 C.ar      1 <0>        -0.0936
      2 C2          4.1395   -2.7881   -5.5636 C.ar      1 <0>        -0.1255
      3 C3          3.2443   -1.8546   -6.0448 C.ar      1 <0>        -0.0669
      4 C4          3.1531   -1.6226   -7.4166 C.ar      1 <0>        -0.0709
      5 C5          3.9643   -2.3401   -8.2948 C.ar      1 <0>        -0.0886
      6 C6          4.8591   -3.2676   -7.8016 C.ar      1 <0>        -0.1228
      7 C7          2.1932   -0.6216   -7.9397 C.ar      1 <0>         0.2348
      8 C8          2.1129   -0.4001   -9.3147 C.ar      1 <0>        -0.1290
      9 C9          1.2183    0.5327   -9.8005 C.ar      1 <0>        -0.0705
     10 C10         0.4167    1.2288   -8.8861 C.ar      1 <0>        -0.0221
     11 C11         0.5522    0.9530   -7.5129 C.ar      1 <0>         0.1728
     12 N1          1.4269    0.0538   -7.0926 N.ar      1 <0>        -0.4615
     13 S1         -0.4448    1.8164   -6.3446 S.3       1 <0>        -0.0052
     14 C12         0.1520    1.0683   -4.8083 C.3       1 <0>        -0.1111
     15 C13        -0.5925    1.6804   -3.6201 C.3       1 <0>         0.0743
     16 O1         -0.1213    1.0897   -2.4072 O.3       1 <0>        -0.3582
     17 C14        -0.7557    1.5942   -1.2303 C.3       1 <0>         0.2575
     18 H1         -0.7348    2.6839   -1.2448 H         1 <0>         0.0558
     19 C15        -0.0127    1.0858    0.0080 C.3       1 <0>        -0.1404
     20 C16        -0.7322    1.5811    1.2663 C.3       1 <0>        -0.1211
     21 C17        -2.1897    1.1073    1.2260 C.3       1 <0>        -0.1615
     22 C18        -2.8486    1.6148   -0.0594 C.3       1 <0>         0.0715
     23 O2         -2.1112    1.1437   -1.1892 O.3       1 <0>        -0.4059
     24 C19        -0.5255    2.2061   -9.3419 C.1       1 <0>         0.2298
     25 N2         -1.2730    2.9813   -9.7035 N.1       1 <0>        -0.3524
     26 C20         1.1062    0.7957  -11.2801 C.3       1 <0>         0.5093
     27 F1          2.0081   -0.0225  -11.9688 F         1 <0>        -0.1637
     28 F2         -0.1965    0.5157  -11.7062 F         1 <0>        -0.1637
     29 F3          1.4031    2.1381  -11.5389 F         1 <0>        -0.1639
     30 H2          5.6437   -4.2236   -6.0584 H         1 <0>         0.1283
     31 H3          4.2110   -2.9686   -4.5012 H         1 <0>         0.1303
     32 H4          2.6153   -1.3050   -5.3601 H         1 <0>         0.1368
     33 H5          3.8951   -2.1675   -9.3587 H         1 <0>         0.1309
     34 H6          5.4903   -3.8215   -8.4807 H         1 <0>         0.1315
     35 H7          2.7453   -0.9532   -9.9933 H         1 <0>         0.1680
     36 H8          1.2205    1.2566   -4.7036 H         1 <0>         0.1090
     37 H9         -0.0266   -0.0067   -4.8343 H         1 <0>         0.1102
     38 H10        -1.6610    1.4920   -3.7247 H         1 <0>         0.0710
     39 H11        -0.4139    2.7553   -3.5940 H         1 <0>         0.0611
     40 H12         0.0021   -0.0041    0.0020 H         1 <0>         0.0825
     41 H13         1.0096    1.4640    0.0003 H         1 <0>         0.0823
     42 H14        -0.2401    1.1766    2.1508 H         1 <0>         0.0776
     43 H15        -0.7039    2.6703    1.2977 H         1 <0>         0.0667
     44 H16        -2.7247    1.5017    2.0898 H         1 <0>         0.0790
     45 H17        -2.2189    0.0178    1.2446 H         1 <0>         0.0756
     46 H18        -2.8553    2.7048   -0.0584 H         1 <0>         0.0525
     47 H19        -3.8725    1.2450   -0.1137 H         1 <0>         0.0995
@<TRIPOS>BOND
     1    1    6 ar
     2    1    2 ar
     3    1   30 1
     4    2    3 ar
     5    2   31 1
     6    3    4 ar
     7    3   32 1
     8    4    5 ar
     9    4    7 1
    10    5    6 ar
    11    5   33 1
    12    6   34 1
    13    7   12 ar
    14    7    8 ar
    15    8    9 ar
    16    8   35 1
    17    9   10 ar
    18    9   26 1
    19   10   11 ar
    20   10   24 1
    21   11   12 ar
    22   11   13 1
    23   13   14 1
    24   14   15 1
    25   14   36 1
    26   14   37 1
    27   15   16 1
    28   15   38 1
    29   15   39 1
    30   16   17 1
    31   17   18 1
    32   17   23 1
    33   17   19 1
    34   19   20 1
    35   19   40 1
    36   19   41 1
    37   20   21 1
    38   20   42 1
    39   20   43 1
    40   21   22 1
    41   21   44 1
    42   21   45 1
    43   22   23 1
    44   22   46 1
    45   22   47 1
    46   24   25 3
    47   26   27 1
    48   26   28 1
    49   26   29 1
@<TRIPOS>MOLECULE
ZINC26053012
   35    36     0     0     0
SMALL
USER_CHARGES
(6-chloro-3-pyridyl)methyl (E)-3-[5-bromo-2-(difluoromethoxy)phenyl]prop-2-enoate
@<TRIPOS>ATOM
      1 C1         -2.0679    2.5081    8.3801 C.ar      1 <0>        -0.0315
      2 C2         -0.9300    1.7260    8.4290 C.ar      1 <0>        -0.1890
      3 C3         -0.3261    1.3027    7.2559 C.ar      1 <0>         0.1540
      4 C4         -0.8697    1.6816    6.0176 C.ar      1 <0>        -0.0943
      5 C5         -2.0226    2.4735    5.9828 C.ar      1 <0>        -0.0334
      6 C6         -2.6122    2.8800    7.1608 C.ar      1 <0>        -0.1203
      7 Br1        -4.1705    3.9503    7.1129 Br        1 <0>        -0.0328
      8 C7         -0.2352    1.2443    4.7670 C.2       1 <0>         0.0189
      9 C8         -0.7649    1.6067    3.5780 C.2       1 <0>        -0.2128
     10 C9         -0.1526    1.1847    2.3711 C.2       1 <0>         0.5063
     11 O1          0.8497    0.4962    2.4059 O.2       1 <0>        -0.5096
     12 O2         -0.6816    1.5467    1.1837 O.3       1 <0>        -0.3449
     13 C10        -0.0127    1.0858    0.0080 C.3       1 <0>         0.1114
     14 C11        -0.7416    1.5850   -1.2129 C.ar      1 <0>        -0.1483
     15 C12        -0.4037    2.8037   -1.7828 C.ar      1 <0>        -0.0363
     16 C13        -1.1001    3.2230   -2.9049 C.ar      1 <0>        -0.1560
     17 C14        -2.1026    2.4175   -3.4162 C.ar      1 <0>         0.1838
     18 N1         -2.3966    1.2638   -2.8473 N.ar      1 <0>        -0.4781
     19 C15        -1.7505    0.8319   -1.7815 C.ar      1 <0>         0.1461
     20 Cl1        -2.9827    2.9303   -4.8220 Cl        1 <0>        -0.0230
     21 O3          0.7882    0.5298    7.3033 O.3       1 <0>        -0.3107
     22 C16         1.2835    0.1843    8.5984 C.3       1 <0>         0.4088
     23 F1          1.6047    1.3505    9.3013 F         1 <0>        -0.1947
     24 F2          0.3028   -0.5269    9.2982 F         1 <0>        -0.1946
     25 H1         -2.5364    2.8316    9.2978 H         1 <0>         0.1457
     26 H2         -0.5130    1.4403    9.3834 H         1 <0>         0.1490
     27 H3         -2.4496    2.7661    5.0349 H         1 <0>         0.1520
     28 H4          0.6712    0.6218    4.7985 H         1 <0>         0.1529
     29 H5         -1.6713    2.2292    3.5465 H         1 <0>         0.1458
     30 H6          1.0193    1.4666    0.0002 H         1 <0>         0.0856
     31 H7          0.0023   -0.0141    0.0020 H         1 <0>         0.0871
     32 H8          0.3838    3.4113   -1.3620 H         1 <0>         0.1493
     33 H9         -0.8638    4.1665   -3.3743 H         1 <0>         0.1513
     34 H10        -2.0160   -0.1201   -1.3459 H         1 <0>         0.1688
     35 H11         2.1849   -0.4405    8.5144 H         1 <0>         0.1933
@<TRIPOS>BOND
     1    1    6 ar
     2    1    2 ar
     3    1   25 1
     4    2    3 ar
     5    2   26 1
     6    3    4 ar
     7    3   21 1
     8    4    5 ar
     9    4    8 1
    10    5    6 ar
    11    5   27 1
    12    6    7 1
    13    8    9 2
    14    8   28 1
    15    9   10 1
    16    9   29 1
    17   10   11 2
    18   10   12 1
    19   12   13 1
    20   13   14 1
    21   13   30 1
    22   13   31 1
    23   14   19 ar
    24   14   15 ar
    25   15   16 ar
    26   15   32 1
    27   16   17 ar
    28   16   33 1
    29   17   18 ar
    30   17   20 1
    31   18   19 ar
    32   19   34 1
    33   21   22 1
    34   22   23 1
    35   22   24 1
    36   22   35 1
@<TRIPOS>MOLECULE
ZINC57683664
   48    49     0     0     0
SMALL
USER_CHARGES

@<TRIPOS>ATOM
      1 C1         -0.0693    1.5456   -0.0596 C.3       1 <0>        -0.1526
      2 C2         -0.0236    0.0164   -0.0431 C.3       1 <0>        -0.1238
      3 C3          0.6929   -0.4860   -1.2980 C.3       1 <0>        -0.1396
      4 C4          0.7386   -2.0152   -1.2815 C.3       1 <0>         0.1055
      5 N1          1.3166   -2.5001   -2.5373 N.am      1 <0>        -0.5979
      6 C5          2.7427   -2.8278   -2.6089 C.3       1 <0>         0.1348
      7 H1          3.0047   -3.0803   -3.6364 H         1 <0>         0.1175
      8 C6          3.5691   -1.6130   -2.1552 C.3       1 <0>        -0.1485
      9 C7          5.0373   -2.0790   -1.9401 C.3       1 <0>        -0.5725
     10 S1          4.7580   -3.7099   -1.1296 S.o2      1 <0>         2.3714
     11 O1          4.7572   -3.5315    0.2801 O.2       1 <0>        -0.9273
     12 O2          5.6279   -4.6707   -1.7123 O.2       1 <0>        -0.9303
     13 C8          3.0385   -4.0382   -1.6909 C.3       1 <0>        -0.6055
     14 C9          0.5364   -2.6447   -3.6268 C.2       1 <0>         0.5525
     15 O3         -0.6641   -2.4632   -3.5439 O.2       1 <0>        -0.5255
     16 C10         1.1331   -3.0201   -4.9097 C.2       1 <0>        -0.2150
     17 C11         0.3704   -3.0638   -6.0209 C.2       1 <0>        -0.0122
     18 C12         0.9702   -3.4412   -7.3106 C.ar      1 <0>        -0.0728
     19 C13         2.3299   -3.7609   -7.3866 C.ar      1 <0>        -0.0599
     20 C14         2.8847   -4.1139   -8.5977 C.ar      1 <0>        -0.1088
     21 C15         2.0991   -4.1526   -9.7385 C.ar      1 <0>         0.0158
     22 C16         0.7519   -3.8373   -9.6708 C.ar      1 <0>        -0.1771
     23 C17         0.1822   -3.4875   -8.4651 C.ar      1 <0>        -0.0353
     24 C18        -0.0942   -3.8822  -10.9171 C.3       1 <0>         0.5096
     25 F1         -1.4098   -3.5270  -10.6006 F         1 <0>        -0.1723
     26 F2          0.4171   -2.9846  -11.8605 F         1 <0>        -0.1676
     27 F3         -0.0753   -5.1768  -11.4471 F         1 <0>        -0.1675
     28 Cl1         2.8067   -4.5979  -11.2599 Cl        1 <0>        -0.0337
     29 H2          0.9470    1.9393   -0.0798 H         1 <0>         0.0535
     30 H3         -0.6075    1.8835   -0.9451 H         1 <0>         0.0541
     31 H4         -0.5798    1.9036    0.8345 H         1 <0>         0.0564
     32 H5          0.5146   -0.3215    0.8425 H         1 <0>         0.0645
     33 H6         -1.0399   -0.3772   -0.0228 H         1 <0>         0.0656
     34 H7          0.1547   -0.1481   -2.1836 H         1 <0>         0.0701
     35 H8          1.7092   -0.0924   -1.3183 H         1 <0>         0.0676
     36 H9          1.3520   -2.3514   -0.4456 H         1 <0>         0.0823
     37 H10        -0.2723   -2.4077   -1.1714 H         1 <0>         0.0908
     38 H11         3.5371   -0.8389   -2.9220 H         1 <0>         0.1095
     39 H12         3.1663   -1.2220   -1.2209 H         1 <0>         0.1001
     40 H13         5.5573   -2.1953   -2.8910 H         1 <0>         0.1440
     41 H14         5.5745   -1.3978   -1.2802 H         1 <0>         0.1476
     42 H15         2.3524   -4.0578   -0.8441 H         1 <0>         0.1479
     43 H16         2.9876   -4.9709   -2.2526 H         1 <0>         0.1497
     44 H17         2.1841   -3.2622   -4.9662 H         1 <0>         0.1342
     45 H18        -0.6806   -2.8218   -5.9644 H         1 <0>         0.1453
     46 H19         2.9434   -3.7308   -6.4983 H         1 <0>         0.1467
     47 H20         3.9344   -4.3607   -8.6579 H         1 <0>         0.1531
     48 H21        -0.8692   -3.2462   -8.4130 H         1 <0>         0.1556
@<TRIPOS>BOND
     1    1    2 1
     2    1   29 1
     3    1   30 1
     4    1   31 1
     5    2    3 1
     6    2   32 1
     7    2   33 1
     8    3    4 1
     9    3   34 1
    10    3   35 1
    11    4    5 1
    12    4   36 1
    13    4   37 1
    14    5    6 1
    15    5   14 am
    16    6    7 1
    17    6   13 1
    18    6    8 1
    19    8    9 1
    20    8   38 1
    21    8   39 1
    22    9   10 1
    23    9   40 1
    24    9   41 1
    25   10   11 2
    26   10   12 2
    27   10   13 1
    28   13   42 1
    29   13   43 1
    30   14   15 2
    31   14   16 1
    32   16   17 2
    33   16   44 1
    34   17   18 1
    35   17   45 1
    36   18   23 ar
    37   18   19 ar
    38   19   20 ar
    39   19   46 1
    40   20   21 ar
    41   20   47 1
    42   21   22 ar
    43   21   28 1
    44   22   23 ar
    45   22   24 1
    46   23   48 1
    47   24   25 1
    48   24   26 1
    49   24   27 1
@<TRIPOS>MOLECULE
ZINC05276032
   73    76     0     0     0
SMALL
USER_CHARGES
methyl 4-(3-acetoxy-10,13-dimethyl-2,3,4,5,6,7,8,9,14,15,16,17-dodecahydro-1H-cyclopenta[a]phenanthren-17-yl)pentanoate
@<TRIPOS>ATOM
      1 C1          3.6959    3.4978   -1.1555 C.3       1 <0>        -0.1586
      2 C2          2.9812    4.7019   -0.5390 C.3       1 <0>        -0.0831
      3 H1          2.3948    5.2082   -1.3058 H         1 <0>         0.0787
      4 C3          4.0169    5.6714    0.0340 C.3       1 <0>        -0.1056
      5 C4          4.8647    6.2431   -1.1042 C.3       1 <0>        -0.1155
      6 C5          5.8849    7.1980   -0.5398 C.2       1 <0>         0.4574
      7 O1          5.9293    7.4005    0.6505 O.2       1 <0>        -0.5070
      8 O2          6.7443    7.8235   -1.3596 O.3       1 <0>        -0.3625
      9 C6          7.6994    8.7292   -0.7466 C.3       1 <0>         0.0346
     10 C7          2.0559    4.2271    0.5784 C.3       1 <0>        -0.0743
     11 H2          2.6154    3.7532    1.3778 H         1 <0>         0.0740
     12 C8          1.2057    5.4055    1.1223 C.3       1 <0>        -0.1210
     13 C9         -0.2592    4.8880    1.2122 C.3       1 <0>        -0.1122
     14 C10        -0.0940    3.3734    1.0932 C.3       1 <0>        -0.0752
     15 H3          0.3421    3.0258    2.0518 H         1 <0>         0.0614
     16 C11         1.0096    3.2521    0.0178 C.3       1 <0>        -0.0250
     17 C12         1.4195    1.8197   -0.0705 C.2       1 <0>        -0.1491
     18 C13         0.4168    0.9403   -0.1911 C.2       1 <0>        -0.1513
     19 C14        -0.9923    1.4535   -0.2503 C.3       1 <0>        -0.0387
     20 H4         -1.1534    1.9073   -1.2356 H         1 <0>         0.0814
     21 C15        -1.2747    2.5130    0.8088 C.3       1 <0>        -0.0653
     22 H5         -1.4797    1.9653    1.7455 H         1 <0>         0.0619
     23 C16        -2.5536    3.2741    0.4799 C.3       1 <0>        -0.1078
     24 C17        -3.6253    2.2717    0.0146 C.3       1 <0>        -0.1136
     25 C18        -3.2624    0.9016    0.5650 C.3       1 <0>        -0.0794
     26 H6         -2.9984    1.0349    1.6280 H         1 <0>         0.0788
     27 C19        -2.0305    0.3420   -0.1518 C.3       1 <0>        -0.0451
     28 C20        -1.5452   -0.8830    0.6074 C.3       1 <0>        -0.0982
     29 C21        -2.6566   -1.9319    0.6738 C.3       1 <0>        -0.1344
     30 C22        -3.9477   -1.3723    1.2571 C.3       1 <0>         0.0935
     31 H7         -4.7341   -2.1299    1.1725 H         1 <0>         0.0800
     32 C23        -4.3994   -0.1084    0.5135 C.3       1 <0>        -0.1080
     33 O3         -3.7526   -1.0628    2.6632 O.3       1 <0>        -0.3493
     34 C24        -3.9676   -2.0552    3.5411 C.2       1 <0>         0.4581
     35 O4         -4.3074   -3.1462    3.1484 O.2       1 <0>        -0.5162
     36 C25        -3.7851   -1.8087    5.0165 C.3       1 <0>        -0.1486
     37 C26        -2.3898   -0.0666   -1.5826 C.3       1 <0>        -0.1482
     38 C27         0.5592    3.7838   -1.3412 C.3       1 <0>        -0.1423
     39 H8          4.2823    2.9916   -0.3887 H         1 <0>         0.0540
     40 H9          2.9580    2.8072   -1.5637 H         1 <0>         0.0681
     41 H10         4.3566    3.8369   -1.9534 H         1 <0>         0.0531
     42 H11         3.5068    6.4843    0.5508 H         1 <0>         0.0733
     43 H12         4.6609    5.1419    0.7361 H         1 <0>         0.0710
     44 H13         5.3748    5.4302   -1.6210 H         1 <0>         0.1073
     45 H14         4.2208    6.7726   -1.8063 H         1 <0>         0.1051
     46 H15         8.3323    9.1667   -1.5186 H         1 <0>         0.1020
     47 H16         7.1644    9.5216   -0.2232 H         1 <0>         0.0631
     48 H17         8.3184    8.1792   -0.0378 H         1 <0>         0.0630
     49 H18         1.5598    5.6972    2.1106 H         1 <0>         0.0625
     50 H19         1.2612    6.2529    0.4396 H         1 <0>         0.0651
     51 H20        -0.6929    5.1477    2.1813 H         1 <0>         0.0607
     52 H21        -0.8693    5.2913    0.4091 H         1 <0>         0.0693
     53 H22         2.4634    1.5033   -0.0405 H         1 <0>         0.1190
     54 H23         0.6369   -0.1249   -0.2557 H         1 <0>         0.1132
     55 H24        -2.9074    3.7925    1.3701 H         1 <0>         0.0629
     56 H25        -2.3616    3.9921   -0.3144 H         1 <0>         0.0630
     57 H26        -4.5970    2.5781    0.4102 H         1 <0>         0.0614
     58 H27        -3.6683    2.2572   -1.0709 H         1 <0>         0.0641
     59 H28        -1.2503   -0.5945    1.6187 H         1 <0>         0.0651
     60 H29        -0.6802   -1.3131    0.0953 H         1 <0>         0.0663
     61 H30        -2.3154   -2.7559    1.3165 H         1 <0>         0.0627
     62 H31        -2.8474   -2.3476   -0.3144 H         1 <0>         0.0808
     63 H32        -5.2729    0.3123    1.0317 H         1 <0>         0.0690
     64 H33        -4.6915   -0.3444   -0.5033 H         1 <0>         0.0873
     65 H34        -3.4792   -0.7749    5.1771 H         1 <0>         0.0904
     66 H35        -4.7258   -1.9939    5.5349 H         1 <0>         0.1043
     67 H36        -3.0182   -2.4790    5.4048 H         1 <0>         0.1040
     68 H37        -2.7549    0.8036   -2.1281 H         1 <0>         0.0558
     69 H38        -1.5048   -0.4626   -2.0804 H         1 <0>         0.0549
     70 H39        -3.1658   -0.8317   -1.5579 H         1 <0>         0.0569
     71 H40        -0.3641    3.2863   -1.6381 H         1 <0>         0.0582
     72 H41         0.3872    4.8579   -1.2723 H         1 <0>         0.0589
     73 H42         1.3330    3.5866   -2.0831 H         1 <0>         0.0599
@<TRIPOS>BOND
     1    1    2 1
     2    1   39 1
     3    1   40 1
     4    1   41 1
     5    2    3 1
     6    2    4 1
     7    2   10 1
     8    4    5 1
     9    4   42 1
    10    4   43 1
    11    5    6 1
    12    5   44 1
    13    5   45 1
    14    6    7 2
    15    6    8 1
    16    8    9 1
    17    9   46 1
    18    9   47 1
    19    9   48 1
    20   10   11 1
    21   10   16 1
    22   10   12 1
    23   12   13 1
    24   12   49 1
    25   12   50 1
    26   13   14 1
    27   13   51 1
    28   13   52 1
    29   14   15 1
    30   14   21 1
    31   14   16 1
    32   16   17 1
    33   16   38 1
    34   17   18 2
    35   17   53 1
    36   18   19 1
    37   18   54 1
    38   19   20 1
    39   19   27 1
    40   19   21 1
    41   21   22 1
    42   21   23 1
    43   23   24 1
    44   23   55 1
    45   23   56 1
    46   24   25 1
    47   24   57 1
    48   24   58 1
    49   25   26 1
    50   25   32 1
    51   25   27 1
    52   27   28 1
    53   27   37 1
    54   28   29 1
    55   28   59 1
    56   28   60 1
    57   29   30 1
    58   29   61 1
    59   29   62 1
    60   30   31 1
    61   30   32 1
    62   30   33 1
    63   32   63 1
    64   32   64 1
    65   33   34 1
    66   34   35 2
    67   34   36 1
    68   36   65 1
    69   36   66 1
    70   36   67 1
    71   37   68 1
    72   37   69 1
    73   37   70 1
    74   38   71 1
    75   38   72 1
    76   38   73 1
@<TRIPOS>MOLECULE
ZINC12600233
   44    47     0     0     0
SMALL
USER_CHARGES
2-[[4-methyl-5-[[3-(trifluoromethyl)phenyl]methylsulfanyl]-1,2,4-triazol-3-yl]methylsulfanyl]-1,3-benzothiazole
@<TRIPOS>ATOM
      1 C1          0.0021   -0.0041    0.0020 C.3       1 <0>         0.0638
      2 N1         -0.0178    1.4608    0.0101 N.pl3     1 <0>        -0.4544
      3 C2         -1.1190    2.2716    0.0189 C.2       1 <0>         0.1849
      4 N2         -0.6938    3.5032    0.0262 N.2       1 <0>        -0.2482
      5 N3          0.5912    3.5264    0.0146 N.2       1 <0>        -0.2838
      6 C3          1.0593    2.2999    0.0043 C.2       1 <0>         0.1644
      7 S1          2.7563    1.8263   -0.0127 S.3       1 <0>         0.0214
      8 C4          3.5383    3.4586   -0.0124 C.3       1 <0>        -0.0643
      9 C5          5.0366    3.2979   -0.0262 C.ar      1 <0>        -0.0859
     10 C6          5.7134    3.2294   -1.2299 C.ar      1 <0>        -0.0654
     11 C7          7.0876    3.0824   -1.2426 C.ar      1 <0>        -0.1174
     12 C8          7.7855    3.0039   -0.0516 C.ar      1 <0>        -0.0617
     13 C9          7.1089    3.0723    1.1516 C.ar      1 <0>        -0.1815
     14 C10         5.7348    3.2246    1.1643 C.ar      1 <0>        -0.0480
     15 C11         7.8696    2.9872    2.4497 C.3       1 <0>         0.5086
     16 F1          9.2350    2.8424    2.1814 F         1 <0>        -0.1757
     17 F2          7.6612    4.1559    3.1899 F         1 <0>        -0.1745
     18 F3          7.4189    1.8843    3.1829 F         1 <0>        -0.1746
     19 C12        -2.5579    1.8236    0.0223 C.3       1 <0>        -0.0514
     20 S2         -3.1271    1.6349    1.7300 S.3       1 <0>         0.0967
     21 C13        -4.7876    1.1198    1.4440 C.2       1 <0>         0.1119
     22 N4         -5.7214    0.8232    2.3202 N.2       1 <0>        -0.4758
     23 C14        -6.9638    0.4395    1.9539 C.ar      1 <0>         0.0813
     24 C15        -8.0525    0.0955    2.7881 C.ar      1 <0>        -0.0571
     25 C16        -9.2575   -0.2744    2.2500 C.ar      1 <0>        -0.1088
     26 C17        -9.4533   -0.3258    0.8776 C.ar      1 <0>        -0.0889
     27 C18        -8.4096    0.0038    0.0319 C.ar      1 <0>        -0.0680
     28 C19        -7.1999    0.3762    0.5618 C.ar      1 <0>        -0.1328
     29 S3         -5.6333    0.8752   -0.1114 S.3       1 <0>        -0.0057
     30 H1          0.0164   -0.3729    1.0276 H         1 <0>         0.0953
     31 H2         -0.8875   -0.3767   -0.5057 H         1 <0>         0.0977
     32 H3          0.8922   -0.3525   -0.5218 H         1 <0>         0.0995
     33 H4          3.2240    4.0122   -0.8972 H         1 <0>         0.1145
     34 H5          3.2396    4.0044    0.8827 H         1 <0>         0.1134
     35 H6          5.1683    3.2912   -2.1602 H         1 <0>         0.1385
     36 H7          7.6163    3.0293   -2.1828 H         1 <0>         0.1413
     37 H8          8.8594    2.8894   -0.0616 H         1 <0>         0.1427
     38 H9          5.2066    3.2826    2.1046 H         1 <0>         0.1392
     39 H10        -3.1714    2.5681   -0.4851 H         1 <0>         0.1364
     40 H11        -2.6423    0.8686   -0.4965 H         1 <0>         0.1186
     41 H12        -7.9332    0.1249    3.8611 H         1 <0>         0.1365
     42 H13       -10.0732   -0.5320    2.9094 H         1 <0>         0.1384
     43 H14       -10.4107   -0.6199    0.4737 H         1 <0>         0.1425
     44 H15        -8.5461   -0.0313   -1.0389 H         1 <0>         0.1363
@<TRIPOS>BOND
     1    1    2 1
     2    1   30 1
     3    1   31 1
     4    1   32 1
     5    2    6 1
     6    2    3 1
     7    3    4 2
     8    3   19 1
     9    4    5 1
    10    5    6 2
    11    6    7 1
    12    7    8 1
    13    8    9 1
    14    8   33 1
    15    8   34 1
    16    9   14 ar
    17    9   10 ar
    18   10   11 ar
    19   10   35 1
    20   11   12 ar
    21   11   36 1
    22   12   13 ar
    23   12   37 1
    24   13   14 ar
    25   13   15 1
    26   14   38 1
    27   15   16 1
    28   15   17 1
    29   15   18 1
    30   19   20 1
    31   19   39 1
    32   19   40 1
    33   20   21 1
    34   21   29 1
    35   21   22 2
    36   22   23 1
    37   23   28 ar
    38   23   24 ar
    39   24   25 ar
    40   24   41 1
    41   25   26 ar
    42   25   42 1
    43   26   27 ar
    44   26   43 1
    45   27   28 ar
    46   27   44 1
    47   28   29 1
@<TRIPOS>MOLECULE
ZINC35317146
   49    51     0     0     0
SMALL
USER_CHARGES

@<TRIPOS>ATOM
      1 C1         -2.1986    1.8279    1.1497 C.3       1 <0>        -0.1523
      2 C2         -1.3762    0.5467    0.9973 C.3       1 <0>        -0.1558
      3 C3         -1.9484   -0.2937   -0.1460 C.3       1 <0>         0.1025
      4 N1         -2.5515   -1.5127    0.3984 N.am      1 <0>        -0.5949
      5 C4         -1.7220   -2.4814    1.1193 C.3       1 <0>         0.1878
      6 C5         -1.7194   -2.1456    2.5884 C.2       1 <0>        -0.0026
      7 C6         -2.6900   -1.4828    3.2496 C.2       1 <0>        -0.1667
      8 C7         -2.2905   -1.3838    4.5970 C.2       1 <0>        -0.2010
      9 C8         -1.0910   -1.9899    4.7080 C.2       1 <0>         0.0008
     10 N2         -0.7381   -2.4646    3.4795 N.pl3     1 <0>        -0.4355
     11 C9          0.4939   -3.1935    3.1678 C.3       1 <0>         0.1417
     12 C10         1.5216   -2.2340    2.6253 C.ar      1 <0>        -0.1053
     13 C11         1.7482   -2.1609    1.2636 C.ar      1 <0>        -0.0929
     14 C12         2.6908   -1.2809    0.7658 C.ar      1 <0>        -0.1129
     15 C13         3.4075   -0.4734    1.6295 C.ar      1 <0>        -0.0970
     16 C14         3.1819   -0.5456    2.9909 C.ar      1 <0>        -0.1096
     17 C15         2.2344   -1.4223    3.4894 C.ar      1 <0>        -0.0145
     18 Cl1         1.9457   -1.5089    5.1990 Cl        1 <0>        -0.0608
     19 C16        -3.8695   -1.7430    0.2360 C.2       1 <0>         0.5632
     20 O1         -4.3934   -2.6908    0.7880 O.2       1 <0>        -0.5123
     21 C17        -4.6781   -0.8428   -0.6135 C.ar      1 <0>        -0.1131
     22 C18        -4.9394    0.4645   -0.1994 C.ar      1 <0>        -0.0809
     23 C19        -5.6944    1.2996   -0.9964 C.ar      1 <0>        -0.1113
     24 C20        -6.1932    0.8444   -2.2040 C.ar      1 <0>        -0.0739
     25 C21        -5.9385   -0.4508   -2.6207 C.ar      1 <0>        -0.0914
     26 C22        -5.1785   -1.2946   -1.8353 C.ar      1 <0>        -0.0520
     27 Br1        -6.6260   -1.0632   -4.2724 Br        1 <0>        -0.0391
     28 H1         -1.8290    2.3977    2.0022 H         1 <0>         0.0568
     29 H2         -2.1072    2.4281    0.2444 H         1 <0>         0.0546
     30 H3         -3.2454    1.5706    1.3109 H         1 <0>         0.0550
     31 H4         -0.3404    0.8040    0.7760 H         1 <0>         0.0650
     32 H5         -1.4185   -0.0246    1.9246 H         1 <0>         0.0939
     33 H6         -2.7075    0.2821   -0.6755 H         1 <0>         0.0916
     34 H7         -1.1482   -0.5611   -0.8361 H         1 <0>         0.0710
     35 H8         -2.1264   -3.4835    0.9764 H         1 <0>         0.0955
     36 H9         -0.7024   -2.4430    0.7360 H         1 <0>         0.0839
     37 H10        -3.6052   -1.0982    2.8242 H         1 <0>         0.1253
     38 H11        -2.8432   -0.9094    5.3944 H         1 <0>         0.1333
     39 H12        -0.5119   -2.0864    5.6144 H         1 <0>         0.1577
     40 H13         0.8775   -3.6628    4.0737 H         1 <0>         0.1049
     41 H14         0.2836   -3.9604    2.4224 H         1 <0>         0.0992
     42 H15         1.1889   -2.7917    0.5886 H         1 <0>         0.1316
     43 H16         2.8677   -1.2244   -0.2981 H         1 <0>         0.1327
     44 H17         4.1441    0.2138    1.2400 H         1 <0>         0.1349
     45 H18         3.7420    0.0850    3.6654 H         1 <0>         0.1361
     46 H19        -4.5514    0.8211    0.7433 H         1 <0>         0.1396
     47 H20        -5.8971    2.3112   -0.6767 H         1 <0>         0.1405
     48 H21        -6.7841    1.5023   -2.8240 H         1 <0>         0.1388
     49 H22        -4.9758   -2.3033   -2.1636 H         1 <0>         0.1381
@<TRIPOS>BOND
     1    1    2 1
     2    1   28 1
     3    1   29 1
     4    1   30 1
     5    2    3 1
     6    2   31 1
     7    2   32 1
     8    3    4 1
     9    3   33 1
    10    3   34 1
    11    4    5 1
    12    4   19 am
    13    5    6 1
    14    5   35 1
    15    5   36 1
    16    6   10 1
    17    6    7 2
    18    7    8 1
    19    7   37 1
    20    8    9 2
    21    8   38 1
    22    9   10 1
    23    9   39 1
    24   10   11 1
    25   11   12 1
    26   11   40 1
    27   11   41 1
    28   12   17 ar
    29   12   13 ar
    30   13   14 ar
    31   13   42 1
    32   14   15 ar
    33   14   43 1
    34   15   16 ar
    35   15   44 1
    36   16   17 ar
    37   16   45 1
    38   17   18 1
    39   19   20 2
    40   19   21 1
    41   21   26 ar
    42   21   22 ar
    43   22   23 ar
    44   22   46 1
    45   23   24 ar
    46   23   47 1
    47   24   25 ar
    48   24   48 1
    49   25   26 ar
    50   25   27 1
    51   26   49 1
@<TRIPOS>MOLECULE
ZINC38827971
   56    59     0     0     0
SMALL
USER_CHARGES

@<TRIPOS>ATOM
      1 C1         -0.4668    0.5652    0.4832 C.3       1 <0>        -0.1387
      2 C2         -0.3915   -0.9601    0.3911 C.3       1 <0>        -0.1104
      3 S1          0.5072   -1.4314   -1.1125 S.3       1 <0>        -0.1188
      4 C3          0.5082   -3.1930   -1.0741 C.ar      1 <0>        -0.0749
      5 C4         -0.1102   -3.8672   -0.0280 C.ar      1 <0>        -0.1315
      6 C5         -0.1074   -5.2477   -0.0011 C.ar      1 <0>        -0.0804
      7 C6          0.5098   -5.9595   -1.0137 C.ar      1 <0>        -0.0820
      8 C7          1.1267   -5.2919   -2.0561 C.ar      1 <0>        -0.0807
      9 C8          1.1225   -3.9116   -2.0928 C.ar      1 <0>        -0.0974
     10 C9          0.5107   -7.4661   -0.9807 C.3       1 <0>        -0.0972
     11 C10        -0.7072   -7.9850   -1.7007 C.2       1 <0>         0.5102
     12 O1         -1.5004   -7.2079   -2.1881 O.2       1 <0>        -0.4469
     13 N1         -0.9150   -9.3128   -1.8029 N.am      1 <0>        -0.5094
     14 C11        -0.0178  -10.2491   -1.1214 C.3       1 <0>         0.1405
     15 C12         1.0701  -10.6829   -2.0697 C.ar      1 <0>        -0.0784
     16 C13         0.8600  -11.7221   -2.9632 C.ar      1 <0>        -0.1534
     17 C14         1.8812  -12.0922   -3.8178 C.ar      1 <0>         0.1065
     18 N2          3.0435  -11.4700   -3.7893 N.ar      1 <0>        -0.4749
     19 C15         3.2786  -10.4779   -2.9531 C.ar      1 <0>         0.1039
     20 C16         2.3030  -10.0486   -2.0733 C.ar      1 <0>        -0.1600
     21 C17        -1.9769   -9.7921   -2.5525 C.2       1 <0>         0.3740
     22 N3         -2.8753   -9.1183   -3.2321 N.2       1 <0>        -0.4999
     23 C18        -3.8650   -9.7223   -3.9247 C.ar      1 <0>         0.1048
     24 C19        -4.8885   -9.1186   -4.6915 C.ar      1 <0>        -0.0310
     25 C20        -5.8239   -9.8841   -5.3368 C.ar      1 <0>        -0.0772
     26 C21        -5.8028  -11.2696   -5.2637 C.ar      1 <0>        -0.0956
     27 C22        -4.8159  -11.8936   -4.5230 C.ar      1 <0>        -0.0653
     28 C23        -3.8749  -11.1349   -3.8728 C.ar      1 <0>        -0.1499
     29 S2         -2.4675  -11.4853   -2.8466 S.3       1 <0>        -0.0086
     30 C24        -6.9006   -9.2058   -6.1441 C.3       1 <0>        -0.1202
     31 C25        -4.9512   -7.6168   -4.7997 C.3       1 <0>        -0.1165
     32 H1          0.5417    0.9774    0.5185 H         1 <0>         0.0671
     33 H2         -0.9889    0.9567   -0.3899 H         1 <0>         0.0672
     34 H3         -1.0069    0.8484    1.3867 H         1 <0>         0.0765
     35 H4          0.1306   -1.3515    1.2642 H         1 <0>         0.0880
     36 H5         -1.4000   -1.3722    0.3558 H         1 <0>         0.0879
     37 H6         -0.5921   -3.3120    0.7632 H         1 <0>         0.1241
     38 H7         -0.5875   -5.7724    0.8117 H         1 <0>         0.1245
     39 H8          1.6080   -5.8509   -2.8449 H         1 <0>         0.1261
     40 H9          1.5998   -3.3910   -2.9098 H         1 <0>         0.1298
     41 H10         1.4095   -7.8397   -1.4714 H         1 <0>         0.1119
     42 H11         0.4936   -7.8069    0.0545 H         1 <0>         0.1119
     43 H12         0.4286   -9.7598   -0.2557 H         1 <0>         0.1203
     44 H13        -0.5835  -11.1214   -0.7940 H         1 <0>         0.1069
     45 H14        -0.0895  -12.2360   -2.9908 H         1 <0>         0.1387
     46 H15         1.7255  -12.9007   -4.5168 H         1 <0>         0.1605
     47 H16         4.2434   -9.9925   -2.9586 H         1 <0>         0.1613
     48 H17         2.5000   -9.2322   -1.3942 H         1 <0>         0.1406
     49 H18        -6.5498  -11.8545   -5.7796 H         1 <0>         0.1394
     50 H19        -4.7858  -12.9711   -4.4566 H         1 <0>         0.1340
     51 H20        -6.5885   -9.1439   -7.1866 H         1 <0>         0.0751
     52 H21        -7.8237   -9.7812   -6.0748 H         1 <0>         0.0707
     53 H22        -7.0684   -8.2016   -5.7548 H         1 <0>         0.0743
     54 H23        -4.4579   -7.2977   -5.7178 H         1 <0>         0.0725
     55 H24        -5.9931   -7.2970   -4.8170 H         1 <0>         0.0719
     56 H25        -4.4481   -7.1694   -3.9425 H         1 <0>         0.0782
@<TRIPOS>BOND
     1    1    2 1
     2    1   32 1
     3    1   33 1
     4    1   34 1
     5    2    3 1
     6    2   35 1
     7    2   36 1
     8    3    4 1
     9    4    9 ar
    10    4    5 ar
    11    5    6 ar
    12    5   37 1
    13    6    7 ar
    14    6   38 1
    15    7    8 ar
    16    7   10 1
    17    8    9 ar
    18    8   39 1
    19    9   40 1
    20   10   11 1
    21   10   41 1
    22   10   42 1
    23   11   12 2
    24   11   13 am
    25   13   14 1
    26   13   21 1
    27   14   15 1
    28   14   43 1
    29   14   44 1
    30   15   20 ar
    31   15   16 ar
    32   16   17 ar
    33   16   45 1
    34   17   18 ar
    35   17   46 1
    36   18   19 ar
    37   19   20 ar
    38   19   47 1
    39   20   48 1
    40   21   29 1
    41   21   22 2
    42   22   23 1
    43   23   28 ar
    44   23   24 ar
    45   24   25 ar
    46   24   31 1
    47   25   26 ar
    48   25   30 1
    49   26   27 ar
    50   26   49 1
    51   27   28 ar
    52   27   50 1
    53   28   29 1
    54   30   51 1
    55   30   52 1
    56   30   53 1
    57   31   54 1
    58   31   55 1
    59   31   56 1
@<TRIPOS>MOLECULE
ZINC04708522
   53    55     0     0     0
SMALL
USER_CHARGES

@<TRIPOS>ATOM
      1 C1         -4.1117   -5.1901    3.7947 C.3       1 <0>        -0.1178
      2 C2         -3.4652   -3.9408    4.3353 C.ar      1 <0>        -0.0818
      3 C3         -3.9181   -3.3839    5.5169 C.ar      1 <0>        -0.1131
      4 C4         -3.3252   -2.2381    6.0128 C.ar      1 <0>        -0.1133
      5 C5         -2.2789   -1.6491    5.3273 C.ar      1 <0>        -0.1118
      6 C6         -1.8255   -2.2063    4.1466 C.ar      1 <0>        -0.1099
      7 C7         -2.4158   -3.3549    3.6528 C.ar      1 <0>        -0.1002
      8 C8         -0.6853   -1.5640    3.3992 C.3       1 <0>         0.1285
      9 N1          0.5093   -2.4041    3.5151 N.pl3     1 <0>        -0.4304
     10 C9          0.7523   -3.5418    2.8041 C.2       1 <0>        -0.0086
     11 C10         1.9490   -4.0311    3.1878 C.2       1 <0>        -0.2014
     12 C11         2.4635   -3.1637    4.1716 C.2       1 <0>        -0.1587
     13 C12         1.5644   -2.1742    4.3474 C.2       1 <0>        -0.0079
     14 C13         1.7005   -1.0163    5.3023 C.3       1 <0>         0.1926
     15 N2          2.0700    0.1900    4.5576 N.am      1 <0>        -0.6081
     16 C14         1.0419    1.1653    4.1862 C.3       1 <0>         0.1197
     17 C15         0.6541    0.9621    2.7442 C.2       1 <0>        -0.2076
     18 C16        -0.6034    0.7848    2.4229 C.2       1 <0>        -0.1580
     19 C17         3.3558    0.4025    4.2142 C.2       1 <0>         0.5655
     20 O1          4.1420   -0.5245    4.1990 O.2       1 <0>        -0.4993
     21 C18         3.8102    1.7630    3.8558 C.ar      1 <0>        -0.1292
     22 C19         3.0078    2.5833    3.0608 C.ar      1 <0>        -0.0891
     23 C20         3.4374    3.8517    2.7305 C.ar      1 <0>        -0.1234
     24 C21         4.6609    4.3115    3.1850 C.ar      1 <0>        -0.0515
     25 C22         5.4608    3.5037    3.9732 C.ar      1 <0>        -0.1865
     26 C23         5.0404    2.2349    4.3157 C.ar      1 <0>        -0.0172
     27 C24         6.7920    4.0125    4.4633 C.3       1 <0>         0.5098
     28 F1          6.9945    5.3150    3.9948 F         1 <0>        -0.1751
     29 F2          6.8047    4.0129    5.8623 F         1 <0>        -0.1743
     30 F3          7.8124    3.1819    3.9879 F         1 <0>        -0.1727
     31 H1         -3.5476   -6.0628    4.1240 H         1 <0>         0.0728
     32 H2         -5.1350   -5.2585    4.1637 H         1 <0>         0.0679
     33 H3         -4.1200   -5.1527    2.7054 H         1 <0>         0.0676
     34 H4         -4.7354   -3.8440    6.0523 H         1 <0>         0.1240
     35 H5         -3.6794   -1.8027    6.9354 H         1 <0>         0.1253
     36 H6         -1.8160   -0.7533    5.7144 H         1 <0>         0.1184
     37 H7         -2.0591   -3.7925    2.7321 H         1 <0>         0.1198
     38 H8         -0.9540   -1.4574    2.3483 H         1 <0>         0.0949
     39 H9         -0.4808   -0.5810    3.8235 H         1 <0>         0.1129
     40 H10         0.0990   -3.9764    2.0620 H         1 <0>         0.1551
     41 H11         2.4253   -4.9238    2.8102 H         1 <0>         0.1328
     42 H12         3.4068   -3.2693    4.6868 H         1 <0>         0.1341
     43 H13         0.7510   -0.8521    5.8119 H         1 <0>         0.0849
     44 H14         2.4733   -1.2405    6.0375 H         1 <0>         0.1008
     45 H15         0.1660    1.0294    4.8206 H         1 <0>         0.0892
     46 H16         1.4333    2.1740    4.3185 H         1 <0>         0.1001
     47 H17         1.4130    0.9625    1.9758 H         1 <0>         0.1219
     48 H18        -1.3713    0.8748    3.1769 H         1 <0>         0.1061
     49 H19        -0.8722    0.5488    1.4038 H         1 <0>         0.1095
     50 H20         2.0531    2.2254    2.7048 H         1 <0>         0.1622
     51 H21         2.8176    4.4874    2.1155 H         1 <0>         0.1429
     52 H22         4.9929    5.3052    2.9230 H         1 <0>         0.1444
     53 H23         5.6639    1.6067    4.9346 H         1 <0>         0.1430
@<TRIPOS>BOND
     1    1    2 1
     2    1   31 1
     3    1   32 1
     4    1   33 1
     5    2    7 ar
     6    2    3 ar
     7    3    4 ar
     8    3   34 1
     9    4    5 ar
    10    4   35 1
    11    5    6 ar
    12    5   36 1
    13    6    7 ar
    14    6    8 1
    15    7   37 1
    16    8    9 1
    17    8   38 1
    18    8   39 1
    19    9   13 1
    20    9   10 1
    21   10   11 2
    22   10   40 1
    23   11   12 1
    24   11   41 1
    25   12   13 2
    26   12   42 1
    27   13   14 1
    28   14   15 1
    29   14   43 1
    30   14   44 1
    31   15   16 1
    32   15   19 am
    33   16   17 1
    34   16   45 1
    35   16   46 1
    36   17   18 2
    37   17   47 1
    38   18   48 1
    39   18   49 1
    40   19   20 2
    41   19   21 1
    42   21   26 ar
    43   21   22 ar
    44   22   23 ar
    45   22   50 1
    46   23   24 ar
    47   23   51 1
    48   24   25 ar
    49   24   52 1
    50   25   26 ar
    51   25   27 1
    52   26   53 1
    53   27   28 1
    54   27   29 1
    55   27   30 1
@<TRIPOS>MOLECULE
ZINC05892119
   43    45     0     0     0
SMALL
USER_CHARGES
2-[[4-(3-chlorophenyl)-1,2,4-triazol-3-yl]sulfanyl]-N-(2-cyanoethyl)-N-phenyl-acetamide
@<TRIPOS>ATOM
      1 C1         -2.0034    2.8417    5.8872 C.ar      1 <0>        -0.1137
      2 C2         -1.8806    1.4712    5.7495 C.ar      1 <0>        -0.1087
      3 C3         -1.2970    0.9391    4.6165 C.ar      1 <0>        -0.1154
      4 C4         -0.8333    1.7819    3.6149 C.ar      1 <0>         0.1328
      5 C5         -0.9529    3.1580    3.7588 C.ar      1 <0>        -0.1050
      6 C6         -1.5423    3.6836    4.8919 C.ar      1 <0>        -0.1077
      7 N1         -0.2416    1.2460    2.4658 N.am      1 <0>        -0.5628
      8 C7          1.0506    0.5619    2.5582 C.3       1 <0>         0.1092
      9 C8          2.1794    1.5748    2.3566 C.3       1 <0>        -0.0463
     10 C9          3.4778    0.8875    2.4495 C.1       1 <0>         0.2015
     11 N2          4.4798    0.3571    2.5212 N.1       1 <0>        -0.4153
     12 C10        -0.8604    1.3590    1.2738 C.2       1 <0>         0.5396
     13 O1         -1.9690    1.8468    1.2100 O.2       1 <0>        -0.4980
     14 C11        -0.1749    0.8794    0.0204 C.3       1 <0>        -0.1561
     15 S1         -1.2534    1.1663   -1.4046 S.3       1 <0>         0.0958
     16 C12        -0.2330    0.5317   -2.6933 C.2       1 <0>         0.1461
     17 N3          0.9680    0.0188   -2.5576 N.2       1 <0>        -0.2876
     18 N4          1.4199   -0.3470   -3.7036 N.2       1 <0>        -0.2765
     19 C13         0.5470   -0.0845   -4.6349 C.2       1 <0>         0.1751
     20 N5         -0.5394    0.4855   -4.0257 N.pl3     1 <0>        -0.4188
     21 C14        -1.7197    0.9287   -4.6398 C.ar      1 <0>         0.1210
     22 C15        -2.9537    0.5280   -4.1454 C.ar      1 <0>        -0.1021
     23 C16        -4.1150    0.9696   -4.7487 C.ar      1 <0>        -0.0830
     24 C17        -4.0499    1.8023   -5.8507 C.ar      1 <0>        -0.0951
     25 C18        -2.8218    2.1994   -6.3494 C.ar      1 <0>        -0.0203
     26 C19        -1.6563    1.7640   -5.7462 C.ar      1 <0>        -0.1001
     27 Cl1        -2.7442    3.2443   -7.7335 Cl        1 <0>        -0.0480
     28 H1         -2.4602    3.2553    6.7742 H         1 <0>         0.1266
     29 H2         -2.2417    0.8163    6.5287 H         1 <0>         0.1286
     30 H3         -1.2010   -0.1313    4.5097 H         1 <0>         0.1264
     31 H4         -0.5893    3.8162    2.9837 H         1 <0>         0.1248
     32 H5         -1.6393    4.7536    5.0026 H         1 <0>         0.1286
     33 H6          1.1479    0.1003    3.5409 H         1 <0>         0.1013
     34 H7          1.1106   -0.2071    1.7881 H         1 <0>         0.0992
     35 H8          2.0822    2.0364    1.3739 H         1 <0>         0.1121
     36 H9          2.1195    2.3438    3.1268 H         1 <0>         0.1177
     37 H10         0.0367   -0.1864    0.1072 H         1 <0>         0.1324
     38 H11         0.7587    1.4254   -0.1148 H         1 <0>         0.1316
     39 H12         0.6593   -0.2801   -5.6911 H         1 <0>         0.2275
     40 H13        -3.0056   -0.1256   -3.2872 H         1 <0>         0.1427
     41 H14        -5.0749    0.6607   -4.3620 H         1 <0>         0.1497
     42 H15        -4.9593    2.1430   -6.3233 H         1 <0>         0.1462
     43 H16        -0.6977    2.0739   -6.1353 H         1 <0>         0.1443
@<TRIPOS>BOND
     1    1    6 ar
     2    1    2 ar
     3    1   28 1
     4    2    3 ar
     5    2   29 1
     6    3    4 ar
     7    3   30 1
     8    4    5 ar
     9    4    7 1
    10    5    6 ar
    11    5   31 1
    12    6   32 1
    13    7    8 1
    14    7   12 am
    15    8    9 1
    16    8   33 1
    17    8   34 1
    18    9   10 1
    19    9   35 1
    20    9   36 1
    21   10   11 3
    22   12   13 2
    23   12   14 1
    24   14   15 1
    25   14   37 1
    26   14   38 1
    27   15   16 1
    28   16   20 1
    29   16   17 2
    30   17   18 1
    31   18   19 2
    32   19   20 1
    33   19   39 1
    34   20   21 1
    35   21   26 ar
    36   21   22 ar
    37   22   23 ar
    38   22   40 1
    39   23   24 ar
    40   23   41 1
    41   24   25 ar
    42   24   42 1
    43   25   26 ar
    44   25   27 1
    45   26   43 1
@<TRIPOS>MOLECULE
ZINC36776363
   50    52     0     0     0
SMALL
USER_CHARGES

@<TRIPOS>ATOM
      1 C1         -0.0646    1.5709    0.0277 C.3       1 <0>        -0.1783
      2 C2         -0.0153    0.0418    0.0066 C.3       1 <0>         0.0870
      3 N1         -1.3800   -0.4909    0.0144 N.pl3     1 <0>        -0.4485
      4 C3         -2.1107   -0.8893    1.1106 C.2       1 <0>         0.2145
      5 N2         -3.2773   -1.2982    0.6683 N.2       1 <0>        -0.2546
      6 N3         -3.3255   -1.1845   -0.6109 N.2       1 <0>        -0.2893
      7 C4         -2.1934   -0.6900   -1.0630 C.2       1 <0>         0.1565
      8 S1         -1.7991   -0.3519   -2.7467 S.3       1 <0>         0.0742
      9 C5         -3.2942   -0.8354   -3.6532 C.3       1 <0>        -0.1084
     10 H1         -3.5466   -1.8682   -3.4131 H         1 <0>         0.1255
     11 C6         -4.4527    0.0795   -3.2509 C.3       1 <0>        -0.1457
     12 C7         -3.0462   -0.7101   -5.1343 C.2       1 <0>         0.5420
     13 O1         -2.1418   -0.0117   -5.5408 O.2       1 <0>        -0.5173
     14 N4         -3.8294   -1.3742   -6.0073 N.am      1 <0>        -0.6026
     15 C8         -4.9219   -2.2178   -5.5163 C.3       1 <0>         0.0677
     16 C9         -3.5883   -1.2524   -7.4472 C.3       1 <0>         0.1557
     17 C10        -2.6228   -2.3226   -7.8871 C.ar      1 <0>        -0.0846
     18 C11        -1.2624   -2.0764   -7.8674 C.ar      1 <0>        -0.1053
     19 C12        -0.3756   -3.0571   -8.2706 C.ar      1 <0>        -0.0917
     20 C13        -0.8481   -4.2849   -8.6945 C.ar      1 <0>        -0.1480
     21 C14        -2.2100   -4.5325   -8.7147 C.ar      1 <0>         0.0951
     22 C15        -3.0972   -3.5514   -8.3047 C.ar      1 <0>        -0.1406
     23 F1         -2.6730   -5.7321   -9.1292 F         1 <0>        -0.1388
     24 C16        -1.6660   -0.8623    2.5195 C.ar      1 <0>         0.0322
     25 C17        -0.5903   -0.0598    2.9195 C.ar      1 <0>        -0.1756
     26 C18        -0.2092   -0.0649    4.2447 C.ar      1 <0>         0.1090
     27 N5         -0.8428   -0.8116    5.1293 N.ar      1 <0>        -0.4764
     28 C19        -1.8609   -1.5819    4.7951 C.ar      1 <0>         0.1089
     29 C20        -2.3122   -1.6340    3.4932 C.ar      1 <0>        -0.1305
     30 H2          0.9508    1.9672    0.0219 H         1 <0>         0.0902
     31 H3         -0.5996    1.9293   -0.8517 H         1 <0>         0.0748
     32 H4         -0.5801    1.9054    0.9280 H         1 <0>         0.0683
     33 H5          0.5002   -0.2927   -0.8936 H         1 <0>         0.1048
     34 H6          0.5197   -0.3166    0.8861 H         1 <0>         0.1088
     35 H7         -4.6321   -0.0111   -2.1796 H         1 <0>         0.0876
     36 H8         -4.2003    1.1123   -3.4909 H         1 <0>         0.0733
     37 H9         -5.3511   -0.2110   -3.7955 H         1 <0>         0.0753
     38 H10        -5.8314   -1.6228   -5.4334 H         1 <0>         0.0679
     39 H11        -5.0876   -3.0396   -6.2129 H         1 <0>         0.0784
     40 H12        -4.6595   -2.6187   -4.5372 H         1 <0>         0.0772
     41 H13        -4.5296   -1.3691   -7.9843 H         1 <0>         0.0948
     42 H14        -3.1661   -0.2710   -7.6631 H         1 <0>         0.1016
     43 H15        -0.8924   -1.1171   -7.5370 H         1 <0>         0.1365
     44 H16         0.6868   -2.8637   -8.2548 H         1 <0>         0.1347
     45 H17        -0.1551   -5.0507   -9.0102 H         1 <0>         0.1361
     46 H18        -4.1596   -3.7449   -8.3158 H         1 <0>         0.1344
     47 H19        -0.0669    0.5534    2.2009 H         1 <0>         0.1433
     48 H20         0.6194    0.5503    4.5629 H         1 <0>         0.1638
     49 H21        -2.3498   -2.1768    5.5524 H         1 <0>         0.1665
     50 H22        -3.1488   -2.2632    3.2277 H         1 <0>         0.1494
@<TRIPOS>BOND
     1    1    2 1
     2    1   30 1
     3    1   31 1
     4    1   32 1
     5    2    3 1
     6    2   33 1
     7    2   34 1
     8    3    7 1
     9    3    4 1
    10    4    5 2
    11    4   24 1
    12    5    6 1
    13    6    7 2
    14    7    8 1
    15    8    9 1
    16    9   10 1
    17    9   11 1
    18    9   12 1
    19   11   35 1
    20   11   36 1
    21   11   37 1
    22   12   13 2
    23   12   14 am
    24   14   15 1
    25   14   16 1
    26   15   38 1
    27   15   39 1
    28   15   40 1
    29   16   17 1
    30   16   41 1
    31   16   42 1
    32   17   22 ar
    33   17   18 ar
    34   18   19 ar
    35   18   43 1
    36   19   20 ar
    37   19   44 1
    38   20   21 ar
    39   20   45 1
    40   21   22 ar
    41   21   23 1
    42   22   46 1
    43   24   29 ar
    44   24   25 ar
    45   25   26 ar
    46   25   47 1
    47   26   27 ar
    48   26   48 1
    49   27   28 ar
    50   28   29 ar
    51   28   49 1
    52   29   50 1
@<TRIPOS>MOLECULE
ZINC55717864
   49    50     0     0     0
SMALL
USER_CHARGES

@<TRIPOS>ATOM
      1 C1          0.1850    1.2755    0.4517 C.3       1 <0>        -0.1389
      2 C2          0.1061   -0.2025    0.0643 C.3       1 <0>        -0.1320
      3 C3          0.8524   -1.0425    1.1027 C.3       1 <0>        -0.1397
      4 C4         -1.3374   -0.6323    0.0139 C.2       1 <0>         0.4181
      5 O1         -2.1715   -0.0381    0.6682 O.2       1 <0>        -0.4573
      6 C5         -1.7195   -1.7219   -0.7907 C.2       1 <0>        -0.2151
      7 C6         -3.0633   -2.1220   -0.8376 C.2       1 <0>         0.2000
      8 N1         -3.6185   -3.0672   -1.6484 N.am      1 <0>        -0.5417
      9 C7         -4.9140   -3.3406   -1.5797 C.2       1 <0>         0.5450
     10 O2         -5.4511   -4.1758   -2.2831 O.2       1 <0>        -0.4357
     11 C8         -5.6495   -2.5445   -0.5752 C.2       1 <0>        -0.2958
     12 C9         -6.9667   -2.5710   -0.2492 C.2       1 <0>         0.1014
     13 C10        -7.8441   -3.6034   -0.8189 C.ar      1 <0>        -0.0711
     14 C11        -7.3650   -4.9042   -1.0137 C.ar      1 <0>        -0.0760
     15 C12        -8.1920   -5.8689   -1.5484 C.ar      1 <0>        -0.0885
     16 C13        -9.4947   -5.5564   -1.8941 C.ar      1 <0>        -0.1789
     17 C14        -9.9804   -4.2690   -1.7052 C.ar      1 <0>         0.1136
     18 C15        -9.1633   -3.2922   -1.1636 C.ar      1 <0>        -0.1130
     19 O3        -11.2611   -3.9696   -2.0477 O.3       1 <0>        -0.3169
     20 C16       -12.0502   -5.0272   -2.5961 C.3       1 <0>         0.0265
     21 S1         -4.3337   -1.5447    0.0985 S.3       1 <0>         0.2561
     22 C17        -2.7751   -3.7875   -2.6055 C.3       1 <0>         0.0848
     23 C18        -2.0948   -4.9634   -1.9017 C.3       1 <0>         0.0451
     24 O4         -3.0844   -5.9065   -1.4852 O.3       1 <0>        -0.3821
     25 C19        -2.5516   -7.0496   -0.8134 C.3       1 <0>         0.0312
     26 C20        -0.7367   -2.4221   -1.5616 C.1       1 <0>         0.2707
     27 N2          0.0430   -2.9776   -2.1732 N.1       1 <0>        -0.4220
     28 H1          1.2291    1.5864    0.4881 H         1 <0>         0.0624
     29 H2         -0.3467    1.8739   -0.2882 H         1 <0>         0.0586
     30 H3         -0.2713    1.4192    1.4311 H         1 <0>         0.0686
     31 H4          0.5624   -0.3463   -0.9152 H         1 <0>         0.0900
     32 H5          0.3962   -0.8988    2.0822 H         1 <0>         0.0653
     33 H6          0.7963   -2.0955    0.8267 H         1 <0>         0.0564
     34 H7          1.8965   -0.7316    1.1392 H         1 <0>         0.0696
     35 H8         -7.3701   -1.8335    0.4288 H         1 <0>         0.1620
     36 H9         -6.3485   -5.1517   -0.7456 H         1 <0>         0.1304
     37 H10        -7.8216   -6.8723   -1.6983 H         1 <0>         0.1289
     38 H11       -10.1368   -6.3169   -2.3132 H         1 <0>         0.1308
     39 H12        -9.5416   -2.2920   -1.0118 H         1 <0>         0.1383
     40 H13       -11.5812   -5.3947   -3.5088 H         1 <0>         0.0561
     41 H14       -12.1227   -5.8392   -1.8725 H         1 <0>         0.0566
     42 H15       -13.0485   -4.6545   -2.8253 H         1 <0>         0.1024
     43 H16        -3.3912   -4.1609   -3.4235 H         1 <0>         0.1172
     44 H17        -2.0162   -3.1125   -3.0010 H         1 <0>         0.1121
     45 H18        -1.3999   -5.4457   -2.5892 H         1 <0>         0.0748
     46 H19        -1.5502   -4.5996   -1.0304 H         1 <0>         0.0559
     47 H20        -1.8661   -7.5751   -1.4783 H         1 <0>         0.0445
     48 H21        -2.0165   -6.7290    0.0805 H         1 <0>         0.0417
     49 H22        -3.3657   -7.7166   -0.5298 H         1 <0>         0.0895
@<TRIPOS>BOND
     1    1    2 1
     2    1   28 1
     3    1   29 1
     4    1   30 1
     5    2    3 1
     6    2    4 1
     7    2   31 1
     8    3   32 1
     9    3   33 1
    10    3   34 1
    11    4    5 2
    12    4    6 1
    13    6    7 2
    14    6   26 1
    15    7   21 1
    16    7    8 1
    17    8    9 am
    18    8   22 1
    19    9   10 2
    20    9   11 1
    21   11   12 2
    22   11   21 1
    23   12   13 1
    24   12   35 1
    25   13   18 ar
    26   13   14 ar
    27   14   15 ar
    28   14   36 1
    29   15   16 ar
    30   15   37 1
    31   16   17 ar
    32   16   38 1
    33   17   18 ar
    34   17   19 1
    35   18   39 1
    36   19   20 1
    37   20   40 1
    38   20   41 1
    39   20   42 1
    40   22   23 1
    41   22   43 1
    42   22   44 1
    43   23   24 1
    44   23   45 1
    45   23   46 1
    46   24   25 1
    47   25   47 1
    48   25   48 1
    49   25   49 1
    50   26   27 3
@<TRIPOS>MOLECULE
ZINC63728974
   49    51     0     0     0
SMALL
USER_CHARGES

@<TRIPOS>ATOM
      1 C1         -1.5681    2.0468    1.0742 C.3       1 <0>        -0.1526
      2 C2         -1.4963    0.6151    0.5395 C.3       1 <0>        -0.1241
      3 C3         -2.6058   -0.2237    1.1771 C.3       1 <0>         0.0637
      4 N1         -2.5369   -1.5983    0.6637 N.3       1 <0>        -0.5490
      5 C4         -2.8477   -1.6406   -0.7714 C.3       1 <0>         0.1452
      6 C5         -2.5384   -2.9786   -1.3013 C.1       1 <0>         0.1971
      7 N2         -2.2997   -4.0112   -1.7102 N.1       1 <0>        -0.4037
      8 C6         -3.4265   -2.4885    1.4214 C.3       1 <0>         0.3009
      9 N3         -2.9341   -3.8652    1.3290 N.pl3     1 <0>        -0.3724
     10 C7         -3.4603   -4.8508    0.5735 C.2       1 <0>         0.4755
     11 S1         -4.8249   -4.7192   -0.4518 S.2       1 <0>        -0.5536
     12 N4         -2.7175   -5.9582    0.7712 N.pl3     1 <0>        -0.4380
     13 C8         -1.7110   -5.6499    1.6679 C.2       1 <0>         0.3139
     14 N5         -1.8270   -4.3959    2.0049 N.2       1 <0>        -0.2386
     15 C9         -0.6737   -6.5842    2.1577 C.ar      1 <0>         0.0068
     16 C10        -0.7179   -7.9439    1.8298 C.ar      1 <0>        -0.1494
     17 C11         0.2701   -8.7795    2.3076 C.ar      1 <0>         0.1094
     18 N6          1.2457   -8.3124    3.0631 N.ar      1 <0>        -0.4656
     19 C12         1.3248   -7.0381    3.3957 C.ar      1 <0>         0.1064
     20 C13         0.3821   -6.1317    2.9571 C.ar      1 <0>        -0.1225
     21 C14        -2.9293   -7.2064    0.1720 C.ar      1 <0>         0.1046
     22 C15        -3.8265   -8.1049    0.7342 C.ar      1 <0>        -0.0833
     23 C16        -4.0334   -9.3347    0.1408 C.ar      1 <0>        -0.1106
     24 C17        -3.3479   -9.6720   -1.0119 C.ar      1 <0>        -0.0562
     25 C18        -2.4537   -8.7795   -1.5742 C.ar      1 <0>        -0.1109
     26 C19        -2.2467   -7.5458   -0.9887 C.ar      1 <0>        -0.0737
     27 C20        -3.5753  -11.0151   -1.6562 C.3       1 <0>        -0.1213
     28 H1         -0.7777    2.6443    0.6200 H         1 <0>         0.0599
     29 H2         -2.5378    2.4788    0.8269 H         1 <0>         0.0563
     30 H3         -1.4400    2.0373    2.1566 H         1 <0>         0.0569
     31 H4         -1.6244    0.6246   -0.5429 H         1 <0>         0.0661
     32 H5         -0.5266    0.1831    0.7868 H         1 <0>         0.0743
     33 H6         -2.4777   -0.2332    2.2595 H         1 <0>         0.0893
     34 H7         -3.5755    0.2083    0.9298 H         1 <0>         0.0539
     35 H8         -3.9060   -1.4265   -0.9204 H         1 <0>         0.0935
     36 H9         -2.2490   -0.8952   -1.2949 H         1 <0>         0.1250
     37 H10        -3.4461   -2.1790    2.4664 H         1 <0>         0.1209
     38 H11        -4.4334   -2.4342    1.0075 H         1 <0>         0.1133
     39 H12        -1.5137   -8.3332    1.2121 H         1 <0>         0.1480
     40 H13         0.2445   -9.8305    2.0603 H         1 <0>         0.1669
     41 H14         2.1409   -6.6993    4.0167 H         1 <0>         0.1693
     42 H15         0.4556   -5.0891    3.2294 H         1 <0>         0.1505
     43 H16        -4.3616   -7.8423    1.6348 H         1 <0>         0.1291
     44 H17        -4.7310  -10.0339    0.5776 H         1 <0>         0.1376
     45 H18        -1.9198   -9.0457   -2.4744 H         1 <0>         0.1365
     46 H19        -1.5513   -6.8476   -1.4307 H         1 <0>         0.1315
     47 H20        -4.3874  -10.9384   -2.3792 H         1 <0>         0.0787
     48 H21        -2.6651  -11.3330   -2.1647 H         1 <0>         0.0723
     49 H22        -3.8379  -11.7455   -0.8909 H         1 <0>         0.0726
@<TRIPOS>BOND
     1    1    2 1
     2    1   28 1
     3    1   29 1
     4    1   30 1
     5    2    3 1
     6    2   31 1
     7    2   32 1
     8    3    4 1
     9    3   33 1
    10    3   34 1
    11    4    5 1
    12    4    8 1
    13    5    6 1
    14    5   35 1
    15    5   36 1
    16    6    7 3
    17    8    9 1
    18    8   37 1
    19    8   38 1
    20    9   14 1
    21    9   10 1
    22   10   11 2
    23   10   12 1
    24   12   13 1
    25   12   21 1
    26   13   14 2
    27   13   15 1
    28   15   20 ar
    29   15   16 ar
    30   16   17 ar
    31   16   39 1
    32   17   18 ar
    33   17   40 1
    34   18   19 ar
    35   19   20 ar
    36   19   41 1
    37   20   42 1
    38   21   26 ar
    39   21   22 ar
    40   22   23 ar
    41   22   43 1
    42   23   24 ar
    43   23   44 1
    44   24   25 ar
    45   24   27 1
    46   25   26 ar
    47   25   45 1
    48   26   46 1
    49   27   47 1
    50   27   48 1
    51   27   49 1
@<TRIPOS>MOLECULE
ZINC66401080
   46    48     0     0     0
SMALL
USER_CHARGES

@<TRIPOS>ATOM
      1 C1          0.1771    2.0153    0.6134 C.3       1 <0>        -0.1778
      2 C2          0.1193    0.5332    0.2383 C.3       1 <0>         0.0878
      3 N1          0.8634   -0.2503    1.2275 N.pl3     1 <0>        -0.4326
      4 C3          2.1865   -0.6473    1.1389 C.2       1 <0>         0.0283
      5 C4          2.4584   -1.3487    2.2702 C.2       1 <0>         0.0118
      6 N2          1.3490   -1.3801    3.0204 N.2       1 <0>        -0.4840
      7 C5          0.3874   -0.7224    2.4130 C.2       1 <0>         0.1980
      8 S1         -1.2478   -0.4932    3.0278 S.3       1 <0>        -0.0190
      9 C6         -1.2400   -1.3513    4.6260 C.3       1 <0>        -0.0966
     10 C7         -2.6191   -1.2291    5.2772 C.3       1 <0>         0.0287
     11 H1         -3.3798   -1.5984    4.5894 H         1 <0>         0.1326
     12 C8         -2.6506   -2.0561    6.5641 C.3       1 <0>        -0.1059
     13 C9         -4.0641   -2.0353    7.1493 C.3       1 <0>        -0.0295
     14 C10        -4.0943   -2.8310    8.3874 C.1       1 <0>         0.2018
     15 N3         -4.1177   -3.4450    9.3428 N.1       1 <0>        -0.4259
     16 C11        -2.8885    0.1828    5.5946 C.1       1 <0>         0.1934
     17 N4         -3.0963    1.2724    5.8396 N.1       1 <0>        -0.4037
     18 C12         3.1213   -0.3635    0.0296 C.ar      1 <0>        -0.0060
     19 C13         2.8808    0.7084   -0.8317 C.ar      1 <0>        -0.1262
     20 C14         3.7544    0.9699   -1.8662 C.ar      1 <0>        -0.1044
     21 C15         4.8744    0.1714   -2.0553 C.ar      1 <0>         0.0528
     22 C16         5.1211   -0.8969   -1.1991 C.ar      1 <0>         0.0605
     23 C17         4.2498   -1.1627   -0.1563 C.ar      1 <0>        -0.0941
     24 O1          6.2189   -1.6844   -1.3664 O.3       1 <0>        -0.3045
     25 C18         6.8729   -1.6156   -2.6381 C.3       1 <0>         0.0201
     26 C19         7.0265   -0.1372   -3.0199 C.3       1 <0>         0.0193
     27 O2          5.7210    0.4465   -3.0860 O.3       1 <0>        -0.3058
     28 H2          1.2169    2.3195    0.7334 H         1 <0>         0.0681
     29 H3         -0.2862    2.6081   -0.1753 H         1 <0>         0.0837
     30 H4         -0.3583    2.1743    1.5495 H         1 <0>         0.0718
     31 H5         -0.9194    0.2032    0.2201 H         1 <0>         0.0987
     32 H6          0.5632    0.3902   -0.7469 H         1 <0>         0.1036
     33 H7          3.4057   -1.8026    2.5214 H         1 <0>         0.1777
     34 H8         -1.0029   -2.4040    4.4720 H         1 <0>         0.1213
     35 H9         -0.4900   -0.9013    5.2764 H         1 <0>         0.1074
     36 H10        -2.3642   -3.0842    6.3424 H         1 <0>         0.1036
     37 H11        -1.9523   -1.6320    7.2857 H         1 <0>         0.0889
     38 H12        -4.3504   -1.0072    7.3710 H         1 <0>         0.1075
     39 H13        -4.7623   -2.4594    6.4277 H         1 <0>         0.1189
     40 H14         2.0109    1.3322   -0.6882 H         1 <0>         0.1385
     41 H15         3.5664    1.7990   -2.5323 H         1 <0>         0.1392
     42 H16         4.4414   -1.9906    0.5102 H         1 <0>         0.1420
     43 H17         7.8558   -2.0822   -2.5717 H         1 <0>         0.1254
     44 H18         6.2718   -2.1286   -3.3888 H         1 <0>         0.0797
     45 H19         7.6216    0.3774   -2.2655 H         1 <0>         0.0799
     46 H20         7.5145   -0.0572   -3.9913 H         1 <0>         0.1249
@<TRIPOS>BOND
     1    1    2 1
     2    1   28 1
     3    1   29 1
     4    1   30 1
     5    2    3 1
     6    2   31 1
     7    2   32 1
     8    3    7 1
     9    3    4 1
    10    4    5 2
    11    4   18 1
    12    5    6 1
    13    5   33 1
    14    6    7 2
    15    7    8 1
    16    8    9 1
    17    9   10 1
    18    9   34 1
    19    9   35 1
    20   10   11 1
    21   10   12 1
    22   10   16 1
    23   12   13 1
    24   12   36 1
    25   12   37 1
    26   13   14 1
    27   13   38 1
    28   13   39 1
    29   14   15 3
    30   16   17 3
    31   18   23 ar
    32   18   19 ar
    33   19   20 ar
    34   19   40 1
    35   20   21 ar
    36   20   41 1
    37   21   27 1
    38   21   22 ar
    39   22   23 ar
    40   22   24 1
    41   23   42 1
    42   24   25 1
    43   25   26 1
    44   25   43 1
    45   25   44 1
    46   26   27 1
    47   26   45 1
    48   26   46 1
@<TRIPOS>MOLECULE
ZINC10357512
   44    46     0     0     0
SMALL
USER_CHARGES
(cyanomethyl-phenyl-carbamoyl)methyl 3-benzothiazol-2-ylpropanoate
@<TRIPOS>ATOM
      1 C1         -0.0554    4.1617    0.0090 C.ar      1 <0>        -0.1107
      2 C2          0.2972    3.4785   -1.1404 C.ar      1 <0>        -0.1091
      3 C3          0.3173    2.0975   -1.1459 C.ar      1 <0>        -0.1124
      4 C4         -0.0174    1.3950    0.0043 C.ar      1 <0>         0.1272
      5 C5         -0.3771    2.0841    1.1551 C.ar      1 <0>        -0.1020
      6 C6         -0.3893    3.4651    1.1559 C.ar      1 <0>        -0.1078
      7 N1          0.0021   -0.0041    0.0020 N.am      1 <0>        -0.5661
      8 C7          1.2752   -0.7187   -0.1189 C.3       1 <0>         0.2037
      9 C8          1.8326   -0.9585    1.2222 C.1       1 <0>         0.1716
     10 N2          2.2627   -1.1435    2.2572 N.1       1 <0>        -0.3925
     11 C9         -1.1504   -0.6943    0.1110 C.2       1 <0>         0.5216
     12 O1         -2.2108   -0.1057    0.1245 O.2       1 <0>        -0.4795
     13 C10        -1.1215   -2.1973    0.2162 C.3       1 <0>         0.0470
     14 O2         -2.4791   -2.7012    0.3227 O.3       1 <0>        -0.3294
     15 C11        -2.6292   -4.0312    0.4250 C.2       1 <0>         0.4709
     16 O3         -1.6583   -4.7504    0.4254 O.2       1 <0>        -0.5004
     17 C12        -4.0086   -4.6272    0.5391 C.3       1 <0>        -0.1084
     18 C13        -3.8993   -6.1499    0.6415 C.3       1 <0>        -0.0220
     19 C14        -5.2787   -6.7459    0.7557 C.2       1 <0>         0.1341
     20 N3         -6.0718   -7.1380   -0.2014 N.2       1 <0>        -0.4989
     21 C15        -7.2930   -7.6598    0.0373 C.ar      1 <0>         0.0737
     22 C16        -8.2579   -8.1252   -0.8834 C.ar      1 <0>        -0.0572
     23 C17        -9.4473   -8.6238   -0.4504 C.ar      1 <0>        -0.1109
     24 C18        -9.7587   -8.6947    0.9004 C.ar      1 <0>        -0.0909
     25 C19        -8.8410   -8.2494    1.8330 C.ar      1 <0>        -0.0678
     26 C20        -7.6369   -7.7446    1.4058 C.ar      1 <0>        -0.1488
     27 S1         -6.1908   -7.0827    2.1942 S.3       1 <0>         0.0314
     28 H1         -0.0705    5.2416    0.0107 H         1 <0>         0.1281
     29 H2          0.5574    4.0253   -2.0346 H         1 <0>         0.1309
     30 H3          0.5928    1.5645   -2.0439 H         1 <0>         0.1307
     31 H4         -0.6426    1.5406    2.0499 H         1 <0>         0.1215
     32 H5         -0.6643    4.0016    2.0520 H         1 <0>         0.1290
     33 H6          1.1103   -1.6727   -0.6197 H         1 <0>         0.1322
     34 H7          1.9747   -0.1189   -0.7011 H         1 <0>         0.1375
     35 H8         -0.6477   -2.6147   -0.6722 H         1 <0>         0.1117
     36 H9         -0.5553   -2.4888    1.1009 H         1 <0>         0.1053
     37 H10        -4.5002   -4.2375    1.4305 H         1 <0>         0.1166
     38 H11        -4.5925   -4.3633   -0.3426 H         1 <0>         0.1202
     39 H12        -3.4077   -6.5396   -0.2498 H         1 <0>         0.1145
     40 H13        -3.3154   -6.4138    1.5233 H         1 <0>         0.1080
     41 H14        -8.0491   -8.0850   -1.9423 H         1 <0>         0.1343
     42 H15       -10.1673   -8.9729   -1.1758 H         1 <0>         0.1363
     43 H16       -10.7096   -9.0947    1.2199 H         1 <0>         0.1407
     44 H17        -9.0685   -8.2976    2.8877 H         1 <0>         0.1358
@<TRIPOS>BOND
     1    1    6 ar
     2    1    2 ar
     3    1   28 1
     4    2    3 ar
     5    2   29 1
     6    3    4 ar
     7    3   30 1
     8    4    5 ar
     9    4    7 1
    10    5    6 ar
    11    5   31 1
    12    6   32 1
    13    7    8 1
    14    7   11 am
    15    8    9 1
    16    8   33 1
    17    8   34 1
    18    9   10 3
    19   11   12 2
    20   11   13 1
    21   13   14 1
    22   13   35 1
    23   13   36 1
    24   14   15 1
    25   15   16 2
    26   15   17 1
    27   17   18 1
    28   17   37 1
    29   17   38 1
    30   18   19 1
    31   18   39 1
    32   18   40 1
    33   19   27 1
    34   19   20 2
    35   20   21 1
    36   21   26 ar
    37   21   22 ar
    38   22   23 ar
    39   22   41 1
    40   23   24 ar
    41   23   42 1
    42   24   25 ar
    43   24   43 1
    44   25   26 ar
    45   25   44 1
    46   26   27 1
@<TRIPOS>MOLECULE
ZINC33744845
   56    57     0     0     0
SMALL
USER_CHARGES
N-allyl-3-chloro-N-[2-[2-furylmethyl-[(1-methylpyrrol-2-yl)methyl]amino]-2-oxo-ethyl]-2,2-dimethyl-propanamide
@<TRIPOS>ATOM
      1 C1         -0.3876    1.7121   -5.3390 C.3       1 <0>        -0.1718
      2 C2         -1.2395    2.3920   -6.4127 C.3       1 <0>        -0.0923
      3 C3         -2.6088    1.7131   -6.4830 C.3       1 <0>        -0.1658
      4 C4         -0.5411    2.2733   -7.7688 C.3       1 <0>        -0.0102
      5 Cl1        -0.3278    0.5318   -8.1845 Cl        1 <0>        -0.1745
      6 C5         -1.4178    3.8476   -6.0652 C.2       1 <0>         0.5374
      7 O1         -1.0388    4.7054   -6.8342 O.2       1 <0>        -0.5181
      8 N1         -1.9984    4.1960   -4.8999 N.am      1 <0>        -0.5859
      9 C6         -2.3090    5.6016   -4.6278 C.3       1 <0>         0.1449
     10 C7         -1.0870    6.2880   -4.0742 C.2       1 <0>        -0.1755
     11 C8         -0.6322    7.3762   -4.6444 C.2       1 <0>        -0.1735
     12 C9         -2.3189    3.1691   -3.9054 C.3       1 <0>         0.0558
     13 C10        -1.2241    3.1121   -2.8714 C.2       1 <0>         0.4921
     14 O2         -0.1935    3.7276   -3.0449 O.2       1 <0>        -0.4978
     15 N2         -1.3901    2.3772   -1.7540 N.am      1 <0>        -0.6052
     16 C11        -2.5666    1.5158   -1.6118 C.3       1 <0>         0.1713
     17 C12        -2.1263    0.0791   -1.4975 C.2       1 <0>        -0.0187
     18 C13        -1.8828   -0.5841   -0.3489 C.2       1 <0>        -0.1740
     19 C14        -1.4976   -1.8951   -0.6923 C.2       1 <0>        -0.2002
     20 C15        -1.5203   -1.9830   -2.0378 C.2       1 <0>        -0.0012
     21 N3         -1.9112   -0.7761   -2.5373 N.pl3     1 <0>        -0.4371
     22 C16        -2.0699   -0.4508   -3.9569 C.3       1 <0>         0.0304
     23 C17        -0.3942    2.4398   -0.6814 C.3       1 <0>         0.1928
     24 C18        -0.6989    3.6088    0.2195 C.2       1 <0>        -0.0334
     25 C19        -1.4084    3.5581    1.3612 C.2       1 <0>        -0.1938
     26 C20        -1.4472    4.8734    1.8781 C.2       1 <0>        -0.2176
     27 C21        -0.7591    5.6493    1.0214 C.2       1 <0>        -0.0343
     28 O3         -0.3033    4.8769    0.0217 O.3       1 <0>        -0.1646
     29 H1          0.5969    2.2003   -5.2885 H         1 <0>         0.0769
     30 H2         -0.2575    0.6497   -5.5925 H         1 <0>         0.0833
     31 H3         -0.8897    1.7976   -4.3640 H         1 <0>         0.0735
     32 H4         -3.2212    2.2020   -7.2550 H         1 <0>         0.0757
     33 H5         -3.1109    1.7986   -5.5080 H         1 <0>         0.0698
     34 H6         -2.4787    0.6507   -6.7365 H         1 <0>         0.0850
     35 H7         -1.1536    2.7622   -8.5407 H         1 <0>         0.1061
     36 H8          0.4433    2.7615   -7.7182 H         1 <0>         0.1048
     37 H9         -2.6164    6.0964   -5.5609 H         1 <0>         0.0888
     38 H10        -3.1268    5.6611   -3.8946 H         1 <0>         0.0855
     39 H11        -0.5769    5.8753   -3.1913 H         1 <0>         0.1242
     40 H12         0.2598    7.8772   -4.2403 H         1 <0>         0.0986
     41 H13        -1.1423    7.7889   -5.5273 H         1 <0>         0.0969
     42 H14        -3.2725    3.4172   -3.4164 H         1 <0>         0.1096
     43 H15        -2.4051    2.1916   -4.4024 H         1 <0>         0.1324
     44 H16        -3.1233    1.8018   -0.7072 H         1 <0>         0.1024
     45 H17        -3.2146    1.6317   -2.4931 H         1 <0>         0.0880
     46 H18        -1.9673   -0.1838    0.6506 H         1 <0>         0.1366
     47 H19        -1.2330   -2.6845   -0.0045 H         1 <0>         0.1375
     48 H20        -1.2759   -2.8598   -2.6192 H         1 <0>         0.1629
     49 H21        -1.8278   -1.3349   -4.5649 H         1 <0>         0.0941
     50 H22        -1.3917    0.3736   -4.2222 H         1 <0>         0.0944
     51 H23        -3.1094   -0.1469   -4.1494 H         1 <0>         0.0768
     52 H24        -0.4258    1.5085   -0.0969 H         1 <0>         0.1197
     53 H25         0.6076    2.5648   -1.1181 H         1 <0>         0.0999
     54 H26        -1.8619    2.6810    1.7987 H         1 <0>         0.1482
     55 H27        -1.9359    5.1939    2.7864 H         1 <0>         0.1483
     56 H28        -0.5963    6.7121    1.1229 H         1 <0>         0.2009
@<TRIPOS>BOND
     1    1    2 1
     2    1   29 1
     3    1   30 1
     4    1   31 1
     5    2    3 1
     6    2    4 1
     7    2    6 1
     8    3   32 1
     9    3   33 1
    10    3   34 1
    11    4    5 1
    12    4   35 1
    13    4   36 1
    14    6    7 2
    15    6    8 am
    16    8    9 1
    17    8   12 1
    18    9   10 1
    19    9   37 1
    20    9   38 1
    21   10   11 2
    22   10   39 1
    23   11   40 1
    24   11   41 1
    25   12   13 1
    26   12   42 1
    27   12   43 1
    28   13   14 2
    29   13   15 am
    30   15   16 1
    31   15   23 1
    32   16   17 1
    33   16   44 1
    34   16   45 1
    35   17   21 1
    36   17   18 2
    37   18   19 1
    38   18   46 1
    39   19   20 2
    40   19   47 1
    41   20   21 1
    42   20   48 1
    43   21   22 1
    44   22   49 1
    45   22   50 1
    46   22   51 1
    47   23   24 1
    48   23   52 1
    49   23   53 1
    50   24   28 1
    51   24   25 2
    52   25   26 1
    53   25   54 1
    54   26   27 2
    55   26   55 1
    56   27   28 1
    57   27   56 1
@<TRIPOS>MOLECULE
ZINC43857880
   50    52     0     0     0
SMALL
USER_CHARGES

@<TRIPOS>ATOM
      1 C1         -0.0184    1.5028    0.0103 C.3       1 <0>        -0.1300
      2 C2          0.0021   -0.0041    0.0020 C.ar      1 <0>        -0.0618
      3 C3          0.0058   -0.6889   -1.1977 C.ar      1 <0>        -0.1095
      4 C4          0.0250   -2.0713   -1.2061 C.ar      1 <0>        -0.0987
      5 C5          0.0401   -2.7727   -0.0143 C.ar      1 <0>        -0.1143
      6 C6          0.0360   -2.0936    1.1882 C.ar      1 <0>        -0.0972
      7 C7          0.0230   -0.7052    1.1998 C.ar      1 <0>         0.0968
      8 N1          0.0246   -0.0129    2.4190 N.pl3     1 <0>        -0.3947
      9 C8          1.0396    0.0041    3.3517 C.2       1 <0>        -0.0346
     10 C9          0.6286    0.7873    4.3636 C.2       1 <0>        -0.0141
     11 N2         -0.6013    1.2445    4.0738 N.2       1 <0>        -0.4845
     12 C10        -0.9752    0.7769    2.9055 C.2       1 <0>         0.1853
     13 S1         -2.5089    1.1096    2.1045 S.3       1 <0>         0.0584
     14 C11        -3.3764    2.2095    3.2570 C.3       1 <0>        -0.1099
     15 H1         -2.7485    3.0726    3.4778 H         1 <0>         0.1218
     16 C12        -3.6792    1.4542    4.5526 C.3       1 <0>        -0.1459
     17 C13        -4.6671    2.6739    2.6329 C.2       1 <0>         0.5419
     18 O1         -5.2023    2.0029    1.7760 O.2       1 <0>        -0.5002
     19 N3         -5.2267    3.8349    3.0270 N.am      1 <0>        -0.6029
     20 C14        -4.5803    4.6455    4.0620 C.3       1 <0>         0.1040
     21 C15        -3.6110    5.6312    3.4065 C.3       1 <0>        -0.0475
     22 C16        -2.9614    6.4457    4.4465 C.1       1 <0>         0.2012
     23 N4         -2.4601    7.0742    5.2491 N.1       1 <0>        -0.4169
     24 C17        -6.4815    4.2864    2.4203 C.3       1 <0>         0.1941
     25 C18        -7.6448    3.7482    3.2128 C.2       1 <0>        -0.0386
     26 C19        -8.2391    4.3610    4.2524 C.2       1 <0>        -0.1932
     27 C20        -9.2768    3.5075    4.6923 C.2       1 <0>        -0.2190
     28 C21        -9.2546    2.4242    3.8952 C.2       1 <0>        -0.0304
     29 O2         -8.2678    2.5781    2.9973 O.3       1 <0>        -0.1631
     30 H2          1.0042    1.8801    0.0026 H         1 <0>         0.0734
     31 H3         -0.5455    1.8639   -0.8728 H         1 <0>         0.0780
     32 H4         -0.5286    1.8543    0.9071 H         1 <0>         0.0778
     33 H5         -0.0067   -0.1439   -2.1300 H         1 <0>         0.1347
     34 H6          0.0279   -2.6045   -2.1453 H         1 <0>         0.1324
     35 H7          0.0548   -3.8525   -0.0239 H         1 <0>         0.1339
     36 H8          0.0471   -2.6418    2.1187 H         1 <0>         0.1299
     37 H9          1.9848   -0.5138    3.2827 H         1 <0>         0.1798
     38 H10         1.1911    1.0107    5.2581 H         1 <0>         0.1772
     39 H11        -2.7457    1.1183    5.0040 H         1 <0>         0.0920
     40 H12        -4.2005    2.1151    5.2452 H         1 <0>         0.0697
     41 H13        -4.3072    0.5911    4.3318 H         1 <0>         0.0721
     42 H14        -5.3385    5.1969    4.6180 H         1 <0>         0.0997
     43 H15        -4.0317    3.9949    4.7431 H         1 <0>         0.0969
     44 H16        -2.8527    5.0798    2.8505 H         1 <0>         0.1124
     45 H17        -4.1596    6.2818    2.7254 H         1 <0>         0.1187
     46 H18        -6.5141    5.3759    2.4213 H         1 <0>         0.1176
     47 H19        -6.5409    3.9220    1.3947 H         1 <0>         0.1081
     48 H20        -7.9740    5.3206    4.6711 H         1 <0>         0.1481
     49 H21        -9.9566    3.6901    5.5114 H         1 <0>         0.1487
     50 H22        -9.9201    1.5763    3.9632 H         1 <0>         0.2025
@<TRIPOS>BOND
     1    1    2 1
     2    1   30 1
     3    1   31 1
     4    1   32 1
     5    2    7 ar
     6    2    3 ar
     7    3    4 ar
     8    3   33 1
     9    4    5 ar
    10    4   34 1
    11    5    6 ar
    12    5   35 1
    13    6    7 ar
    14    6   36 1
    15    7    8 1
    16    8   12 1
    17    8    9 1
    18    9   10 2
    19    9   37 1
    20   10   11 1
    21   10   38 1
    22   11   12 2
    23   12   13 1
    24   13   14 1
    25   14   15 1
    26   14   16 1
    27   14   17 1
    28   16   39 1
    29   16   40 1
    30   16   41 1
    31   17   18 2
    32   17   19 am
    33   19   20 1
    34   19   24 1
    35   20   21 1
    36   20   42 1
    37   20   43 1
    38   21   22 1
    39   21   44 1
    40   21   45 1
    41   22   23 3
    42   24   25 1
    43   24   46 1
    44   24   47 1
    45   25   29 1
    46   25   26 2
    47   26   27 1
    48   26   48 1
    49   27   28 2
    50   27   49 1
    51   28   29 1
    52   28   50 1
@<TRIPOS>MOLECULE
ZINC60132987
   52    53     0     0     0
SMALL
USER_CHARGES

@<TRIPOS>ATOM
      1 C1         -0.0187    1.5258    0.0104 C.3       1 <0>        -0.1849
      2 C2          0.0021   -0.0041    0.0020 C.3       1 <0>         0.1065
      3 N1          0.7106   -0.4894    1.1889 N.pl3     1 <0>        -0.9941
      4 C3         -0.0062   -0.6460    2.4569 C.3       1 <0>         0.1200
      5 C4         -0.6935   -2.0126    2.4888 C.3       1 <0>        -0.1757
      6 S1          2.3218   -0.8609    1.0971 S.o2      1 <0>         2.7040
      7 O1          2.5856   -1.7855    2.1435 O.2       1 <0>        -0.9552
      8 O2          2.5937   -1.1554   -0.2662 O.2       1 <0>        -0.9467
      9 C5          3.2176    0.6063    1.4838 C.2       1 <0>        -0.7816
     10 C6          3.2158    1.6857    0.5891 C.2       1 <0>         0.0350
     11 C7          3.9146    2.8139    0.9040 C.2       1 <0>        -0.2379
     12 C8          4.6206    2.8694    2.1179 C.2       1 <0>         0.5230
     13 O3          5.2498    3.8731    2.4123 O.2       1 <0>        -0.5255
     14 N2          4.6030    1.8160    2.9565 N.am      1 <0>        -0.4920
     15 C9          3.9035    0.6942    2.6473 C.2       1 <0>         0.2620
     16 C10         5.3426    1.8832    4.2193 C.3       1 <0>         0.0841
     17 C11         4.4335    2.4470    5.3133 C.3       1 <0>        -0.1360
     18 C12         5.2059    2.5172    6.6322 C.3       1 <0>         0.0644
     19 O4          4.3569    3.0438    7.6539 O.3       1 <0>        -0.3104
     20 C13         4.8930    3.1723    8.8961 C.ar      1 <0>         0.1263
     21 C14         6.2111    2.8046    9.1255 C.ar      1 <0>        -0.2051
     22 C15         6.7538    2.9367   10.3887 C.ar      1 <0>        -0.0861
     23 C16         5.9847    3.4349   11.4244 C.ar      1 <0>        -0.1520
     24 C17         4.6710    3.8015   11.1985 C.ar      1 <0>        -0.0837
     25 C18         4.1252    3.6767    9.9354 C.ar      1 <0>        -0.1159
     26 C19         2.6950    4.0824    9.6884 C.3       1 <0>        -0.1066
     27 H1          1.0039    1.9031    0.0027 H         1 <0>         0.0580
     28 H2         -0.5459    1.8868   -0.8726 H         1 <0>         0.0735
     29 H3         -0.5289    1.8773    0.9072 H         1 <0>         0.0630
     30 H4         -1.0205   -0.3814    0.0098 H         1 <0>         0.0885
     31 H5          0.5123   -0.3556   -0.8948 H         1 <0>         0.0957
     32 H6          0.6997   -0.5749    3.2845 H         1 <0>         0.0804
     33 H7         -0.7557    0.1399    2.5501 H         1 <0>         0.0820
     34 H8         -1.3993   -2.0837    1.6613 H         1 <0>         0.0608
     35 H9          0.0560   -2.7985    2.3957 H         1 <0>         0.0644
     36 H10        -1.2268   -2.1291    3.4323 H         1 <0>         0.0702
     37 H11         2.6675    1.6243   -0.3393 H         1 <0>         0.1482
     38 H12         3.9254    3.6557    0.2275 H         1 <0>         0.1588
     39 H13         3.8979   -0.1385    3.3350 H         1 <0>         0.1858
     40 H14         5.6726    0.8833    4.5008 H         1 <0>         0.1045
     41 H15         6.2103    2.5316    4.0981 H         1 <0>         0.1131
     42 H16         4.1035    3.4470    5.0318 H         1 <0>         0.0872
     43 H17         3.5658    1.7987    5.4345 H         1 <0>         0.0831
     44 H18         5.5359    1.5173    6.9136 H         1 <0>         0.0682
     45 H19         6.0737    3.1656    6.5110 H         1 <0>         0.0687
     46 H20         6.8121    2.4152    8.3171 H         1 <0>         0.1271
     47 H21         7.7796    2.6503   10.5679 H         1 <0>         0.1251
     48 H22         6.4109    3.5374   12.4114 H         1 <0>         0.1249
     49 H23         4.0723    4.1900   12.0090 H         1 <0>         0.1297
     50 H24         2.0400    3.2285    9.8615 H         1 <0>         0.0684
     51 H25         2.4244    4.8914   10.3670 H         1 <0>         0.0658
     52 H26         2.5861    4.4208    8.6580 H         1 <0>         0.0691
@<TRIPOS>BOND
     1    1    2 1
     2    1   27 1
     3    1   28 1
     4    1   29 1
     5    2    3 1
     6    2   30 1
     7    2   31 1
     8    3    4 1
     9    3    6 1
    10    4    5 1
    11    4   32 1
    12    4   33 1
    13    5   34 1
    14    5   35 1
    15    5   36 1
    16    6    7 2
    17    6    8 2
    18    6    9 1
    19    9   15 2
    20    9   10 1
    21   10   11 2
    22   10   37 1
    23   11   12 1
    24   11   38 1
    25   12   13 2
    26   12   14 am
    27   14   15 1
    28   14   16 1
    29   15   39 1
    30   16   17 1
    31   16   40 1
    32   16   41 1
    33   17   18 1
    34   17   42 1
    35   17   43 1
    36   18   19 1
    37   18   44 1
    38   18   45 1
    39   19   20 1
    40   20   25 ar
    41   20   21 ar
    42   21   22 ar
    43   21   46 1
    44   22   23 ar
    45   22   47 1
    46   23   24 ar
    47   23   48 1
    48   24   25 ar
    49   24   49 1
    50   25   26 1
    51   26   50 1
    52   26   51 1
    53   26   52 1
@<TRIPOS>MOLECULE
ZINC66276106
   47    48     0     0     0
SMALL
USER_CHARGES

@<TRIPOS>ATOM
      1 C1          0.5581    1.0677    0.3369 C.3       1 <0>        -0.1529
      2 C2          0.3487   -0.4473    0.2951 C.3       1 <0>         0.0616
      3 O1         -1.0478   -0.7325    0.1935 O.3       1 <0>        -0.3513
      4 C3         -1.4037   -2.0259    0.1455 C.2       1 <0>         0.4460
      5 O2         -0.5576   -2.8873    0.1884 O.2       1 <0>        -0.4948
      6 C4         -2.8587   -2.4035    0.0382 C.3       1 <0>         0.1259
      7 N1         -2.9831   -3.8628    0.0032 N.am      1 <0>        -0.5535
      8 C5         -3.1262   -4.5821    1.1961 C.ar      1 <0>         0.1078
      9 C6         -2.1171   -5.4380    1.6171 C.ar      1 <0>        -0.0809
     10 C7         -2.2599   -6.1461    2.7943 C.ar      1 <0>        -0.1413
     11 C8         -3.4087   -6.0034    3.5542 C.ar      1 <0>         0.1088
     12 C9         -4.4162   -5.1504    3.1361 C.ar      1 <0>        -0.1410
     13 C10        -4.2748   -4.4361    1.9625 C.ar      1 <0>        -0.0865
     14 F1         -3.5469   -6.6977    4.7049 F         1 <0>        -0.1331
     15 C11        -2.9600   -4.5131   -1.1771 C.2       1 <0>         0.5473
     16 O3         -2.7549   -3.8999   -2.2033 O.2       1 <0>        -0.4935
     17 C12        -3.1888   -6.0019   -1.2218 C.3       1 <0>        -0.1301
     18 S1         -3.2626   -6.5507   -2.9492 S.3       1 <0>        -0.1723
     19 C13        -3.5387   -8.3396   -2.8299 C.3       1 <0>        -0.0269
     20 C14        -3.6208   -8.9287   -4.2146 C.2       1 <0>        -0.2479
     21 C15        -4.7904   -9.0726   -4.9823 C.2       1 <0>         0.1238
     22 N2         -4.4632   -9.6197   -6.1188 N.2       1 <0>        -0.3178
     23 O4         -3.0646   -9.8423   -6.1086 O.3       1 <0>        -0.0776
     24 C16        -2.5861   -9.4035   -4.9343 C.2       1 <0>         0.1040
     25 C17        -1.1447   -9.4393   -4.4961 C.3       1 <0>        -0.0958
     26 C18        -6.1796   -8.6656   -4.5636 C.3       1 <0>        -0.0880
     27 H1          1.6234    1.2853    0.4144 H         1 <0>         0.0811
     28 H2          0.1614    1.5146   -0.5747 H         1 <0>         0.0682
     29 H3          0.0388    1.4826    1.2008 H         1 <0>         0.0674
     30 H4          0.8681   -0.8622   -0.5688 H         1 <0>         0.0686
     31 H5          0.7455   -0.8942    1.2067 H         1 <0>         0.0677
     32 H6         -3.3999   -2.0133    0.9001 H         1 <0>         0.1283
     33 H7         -3.2772   -1.9812   -0.8754 H         1 <0>         0.1353
     34 H8         -1.2213   -5.5501    1.0244 H         1 <0>         0.1412
     35 H9         -1.4753   -6.8119    3.1221 H         1 <0>         0.1441
     36 H10        -5.3114   -5.0405    3.7302 H         1 <0>         0.1453
     37 H11        -5.0589   -3.7675    1.6390 H         1 <0>         0.1423
     38 H12        -2.3697   -6.5108   -0.7136 H         1 <0>         0.1149
     39 H13        -4.1290   -6.2401   -0.7244 H         1 <0>         0.1138
     40 H14        -2.7123   -8.7994   -2.2879 H         1 <0>         0.0936
     41 H15        -4.4715   -8.5287   -2.2987 H         1 <0>         0.0947
     42 H16        -0.9435  -10.3809   -3.9852 H         1 <0>         0.0973
     43 H17        -0.4974   -9.3539   -5.3689 H         1 <0>         0.0917
     44 H18        -0.9506   -8.6089   -3.8172 H         1 <0>         0.0998
     45 H19        -6.3634   -7.6351   -4.8675 H         1 <0>         0.0948
     46 H20        -6.9092   -9.3205   -5.0398 H         1 <0>         0.0838
     47 H21        -6.2710   -8.7467   -3.4805 H         1 <0>         0.0859
@<TRIPOS>BOND
     1    1    2 1
     2    1   27 1
     3    1   28 1
     4    1   29 1
     5    2    3 1
     6    2   30 1
     7    2   31 1
     8    3    4 1
     9    4    5 2
    10    4    6 1
    11    6    7 1
    12    6   32 1
    13    6   33 1
    14    7    8 1
    15    7   15 am
    16    8   13 ar
    17    8    9 ar
    18    9   10 ar
    19    9   34 1
    20   10   11 ar
    21   10   35 1
    22   11   12 ar
    23   11   14 1
    24   12   13 ar
    25   12   36 1
    26   13   37 1
    27   15   16 2
    28   15   17 1
    29   17   18 1
    30   17   38 1
    31   17   39 1
    32   18   19 1
    33   19   20 1
    34   19   40 1
    35   19   41 1
    36   20   24 2
    37   20   21 1
    38   21   22 2
    39   21   26 1
    40   22   23 1
    41   23   24 1
    42   24   25 1
    43   25   42 1
    44   25   43 1
    45   25   44 1
    46   26   45 1
    47   26   46 1
    48   26   47 1
@<TRIPOS>MOLECULE
ZINC06474807
   32    35     0     0     0
SMALL
USER_CHARGES
phenylBLAH
@<TRIPOS>ATOM
      1 C1          0.0017   -0.0035    0.0017 C.ar      1 <0>        -0.1063
      2 C2          0.1855    1.0287   -0.9010 C.ar      1 <0>        -0.1214
      3 C3          1.3706    1.7354   -0.9132 C.ar      1 <0>        -0.1014
      4 C4          2.3842    1.4073   -0.0132 C.ar      1 <0>        -0.0534
      5 C5          2.1929    0.3657    0.8943 C.ar      1 <0>        -0.0781
      6 C6          1.0035   -0.3336    0.8970 C.ar      1 <0>        -0.1217
      7 C7          3.6588    2.1624   -0.0209 C.2       1 <0>         0.2452
      8 N1          4.7814    1.5108    0.0697 N.2       1 <0>        -0.4810
      9 C8          6.0681    2.2179    0.0637 C.3       1 <0>         0.0655
     10 C9          6.0627    3.7227   -0.0430 C.ar      1 <0>        -0.1019
     11 C10         7.2128    4.4445   -0.0526 C.ar      1 <0>        -0.1036
     12 C11         7.1760    5.8354   -0.1519 C.ar      1 <0>        -0.1097
     13 C12         5.9926    6.5049   -0.2414 C.ar      1 <0>        -0.1056
     14 C13         4.7845    5.7874   -0.2342 C.ar      1 <0>        -0.0499
     15 C14         4.8258    4.3780   -0.1339 C.ar      1 <0>        -0.0298
     16 C15         3.6211    3.6329   -0.1250 C.ar      1 <0>        -0.0956
     17 C16         2.4159    4.3091   -0.2158 C.ar      1 <0>        -0.0820
     18 C17         2.3902    5.6961   -0.3145 C.ar      1 <0>        -0.1196
     19 C18         3.5380    6.4313   -0.3247 C.ar      1 <0>        -0.0873
     20 H1         -0.9277   -0.5535    0.0078 H         1 <0>         0.1257
     21 H2         -0.5984    1.2789   -1.6004 H         1 <0>         0.1283
     22 H3          1.5129    2.5410   -1.6183 H         1 <0>         0.1294
     23 H4          2.9744    0.1068    1.5934 H         1 <0>         0.1278
     24 H5          0.8541   -1.1402    1.5995 H         1 <0>         0.1275
     25 H6          6.6552    1.8300   -0.7688 H         1 <0>         0.1027
     26 H7          6.5929    1.9539    0.9819 H         1 <0>         0.1023
     27 H8          8.1638    3.9375    0.0175 H         1 <0>         0.1292
     28 H9          8.1019    6.3915   -0.1583 H         1 <0>         0.1287
     29 H10         5.9833    7.5821   -0.3180 H         1 <0>         0.1317
     30 H11         1.4889    3.7550   -0.2103 H         1 <0>         0.1404
     31 H12         1.4388    6.2024   -0.3842 H         1 <0>         0.1309
     32 H13         3.4900    7.5075   -0.4019 H         1 <0>         0.1329
@<TRIPOS>BOND
     1    1    6 ar
     2    1    2 ar
     3    1   20 1
     4    2    3 ar
     5    2   21 1
     6    3    4 ar
     7    3   22 1
     8    4    5 ar
     9    4    7 1
    10    5    6 ar
    11    5   23 1
    12    6   24 1
    13    7   16 1
    14    7    8 2
    15    8    9 1
    16    9   10 1
    17    9   25 1
    18    9   26 1
    19   10   15 ar
    20   10   11 ar
    21   11   12 ar
    22   11   27 1
    23   12   13 ar
    24   12   28 1
    25   13   14 ar
    26   13   29 1
    27   14   19 ar
    28   14   15 ar
    29   15   16 ar
    30   16   17 ar
    31   17   18 ar
    32   17   30 1
    33   18   19 ar
    34   18   31 1
    35   19   32 1
@<TRIPOS>MOLECULE
ZINC36894629
   28    28     0     0     0
SMALL
USER_CHARGES

@<TRIPOS>ATOM
      1 C1         -0.0187    1.5258    0.0104 C.3       1 <0>        -0.1520
      2 C2          0.0021   -0.0041    0.0020 C.3       1 <0>         0.0613
      3 O1          0.6709   -0.4649   -1.1737 O.3       1 <0>        -0.3319
      4 C3          0.7768   -1.8100   -1.3361 C.ar      1 <0>         0.1005
      5 C4          1.8735   -2.4876   -0.8237 C.ar      1 <0>        -0.0961
      6 C5          1.9785   -3.8550   -0.9897 C.ar      1 <0>        -0.0962
      7 C6          0.9919   -4.5482   -1.6664 C.ar      1 <0>        -0.0943
      8 C7         -0.1019   -3.8751   -2.1784 C.ar      1 <0>        -0.0961
      9 C8         -0.2146   -2.5087   -2.0097 C.ar      1 <0>        -0.0961
     10 C9         -1.4102   -1.7766   -2.5627 C.3       1 <0>        -0.1116
     11 C10         1.1093   -6.0398   -1.8465 C.3       1 <0>        -0.0374
     12 Br1         0.2523   -6.9524   -0.3306 Br        1 <0>        -0.1503
     13 C11         2.9497   -1.7326   -0.0870 C.3       1 <0>        -0.1139
     14 H1          1.0039    1.9031    0.0027 H         1 <0>         0.0654
     15 H2         -0.5459    1.8868   -0.8726 H         1 <0>         0.0653
     16 H3         -0.5289    1.8773    0.9072 H         1 <0>         0.0760
     17 H4          0.5293   -0.3651    0.8851 H         1 <0>         0.0533
     18 H5         -1.0205   -0.3814    0.0098 H         1 <0>         0.0535
     19 H6          2.8321   -4.3830   -0.5910 H         1 <0>         0.1288
     20 H7         -0.8711   -4.4188   -2.7069 H         1 <0>         0.1288
     21 H8         -1.1991   -1.4541   -3.5823 H         1 <0>         0.0747
     22 H9         -2.2745   -2.4406   -2.5632 H         1 <0>         0.0677
     23 H10        -1.6216   -0.9055   -1.9426 H         1 <0>         0.0681
     24 H11         0.6165   -6.3338   -2.7732 H         1 <0>         0.1097
     25 H12         2.1620   -6.3188   -1.8905 H         1 <0>         0.1097
     26 H13         2.7061   -1.6962    0.9748 H         1 <0>         0.0696
     27 H14         3.9060   -2.2375   -0.2232 H         1 <0>         0.0692
     28 H15         3.0154   -0.7179   -0.4796 H         1 <0>         0.0744
@<TRIPOS>BOND
     1    1    2 1
     2    1   14 1
     3    1   15 1
     4    1   16 1
     5    2    3 1
     6    2   17 1
     7    2   18 1
     8    3    4 1
     9    4    9 ar
    10    4    5 ar
    11    5    6 ar
    12    5   13 1
    13    6    7 ar
    14    6   19 1
    15    7    8 ar
    16    7   11 1
    17    8    9 ar
    18    8   20 1
    19    9   10 1
    20   10   21 1
    21   10   22 1
    22   10   23 1
    23   11   12 1
    24   11   24 1
    25   11   25 1
    26   13   26 1
    27   13   27 1
    28   13   28 1
@<TRIPOS>MOLECULE
ZINC41285745
   24    25     0     0     0
SMALL
USER_CHARGES

@<TRIPOS>ATOM
      1 C1         -0.0167    1.3780    0.0096 C.ar      1 <0>        -0.1290
      2 C2          1.1706    2.0866    0.0021 C.ar      1 <0>        -0.0864
      3 C3          2.3773    1.4137   -0.0131 C.ar      1 <0>        -0.1534
      4 C4          2.3974    0.0291   -0.0207 C.ar      1 <0>         0.1055
      5 C5          1.2080   -0.6793   -0.0132 C.ar      1 <0>        -0.1228
      6 C6          0.0021   -0.0041    0.0020 C.ar      1 <0>        -0.0726
      7 C7          1.2281   -2.1862   -0.0220 C.3       1 <0>         0.0100
      8 C8          1.3724   -2.6949    1.3892 C.2       1 <0>         0.0602
      9 N1          0.4289   -2.9888    2.2486 N.2       1 <0>        -0.4999
     10 C9          0.7152   -3.4273    3.4582 C.2       1 <0>         0.0442
     11 C10         2.0300   -3.5594    3.7697 C.2       1 <0>        -0.2133
     12 S1          2.7851   -3.0301    2.2405 S.3       1 <0>         0.1354
     13 C11        -0.3674   -3.7661    4.4503 C.3       1 <0>         0.0412
     14 Cl1        -0.8240   -5.5012    4.2724 Cl        1 <0>        -0.1662
     15 F1          3.5766   -0.6299   -0.0360 F         1 <0>        -0.1343
     16 H1         -0.9594    1.9048    0.0260 H         1 <0>         0.1326
     17 H2          1.1547    3.1665    0.0077 H         1 <0>         0.1349
     18 H3          3.3046    1.9675   -0.0193 H         1 <0>         0.1381
     19 H4         -0.9259   -0.5565    0.0083 H         1 <0>         0.1364
     20 H5          0.2975   -2.5595   -0.4494 H         1 <0>         0.1143
     21 H6          2.0689   -2.5348   -0.6216 H         1 <0>         0.1046
     22 H7          2.4913   -3.8951    4.6867 H         1 <0>         0.2000
     23 H8         -0.0020   -3.5884    5.4617 H         1 <0>         0.1112
     24 H9         -1.2399   -3.1399    4.2640 H         1 <0>         0.1093
@<TRIPOS>BOND
     1    1    6 ar
     2    1    2 ar
     3    1   16 1
     4    2    3 ar
     5    2   17 1
     6    3    4 ar
     7    3   18 1
     8    4    5 ar
     9    4   15 1
    10    5    6 ar
    11    5    7 1
    12    6   19 1
    13    7    8 1
    14    7   20 1
    15    7   21 1
    16    8   12 1
    17    8    9 2
    18    9   10 1
    19   10   11 2
    20   10   13 1
    21   11   12 1
    22   11   22 1
    23   13   14 1
    24   13   23 1
    25   13   24 1
@<TRIPOS>MOLECULE
ZINC50502664
   32    33     0     0     0
SMALL
USER_CHARGES

@<TRIPOS>ATOM
      1 C1         -0.0187    1.5258    0.0104 C.3       1 <0>        -0.1175
      2 C2          1.4167    2.0553   -0.0004 C.3       1 <0>        -0.1312
      3 C3          2.1567    1.5485    1.2391 C.3       1 <0>        -0.1147
      4 C4          2.1775    0.0187    1.2307 C.3       1 <0>        -0.0432
      5 H1          2.7046   -0.3424    2.1137 H         1 <0>         0.1073
      6 C5          0.7421   -0.5109    1.2415 C.3       1 <0>         0.0953
      7 H2          0.2319   -0.1594    2.1383 H         1 <0>         0.0738
      8 C6          0.0021   -0.0041    0.0020 C.3       1 <0>        -0.1500
      9 O1          0.7614   -1.9398    1.2337 O.3       1 <0>        -0.3610
     10 C7         -0.3548   -2.5398    1.8939 C.3       1 <0>         0.0832
     11 C8         -1.4647   -2.8905    0.8720 C.3       1 <0>        -0.1448
     12 C9         -2.2505   -4.0138    1.5928 C.3       1 <0>        -0.1254
     13 C10        -1.1608   -4.8380    2.3092 C.3       1 <0>        -0.1233
     14 C11         0.0444   -3.9008    2.5007 C.3       1 <0>        -0.1238
     15 Br1         3.0977   -0.6153   -0.3868 Br        1 <0>        -0.1409
     16 H3         -0.5289    1.8773    0.9072 H         1 <0>         0.0617
     17 H4         -0.5459    1.8868   -0.8726 H         1 <0>         0.0694
     18 H5          1.9269    1.7038   -0.8972 H         1 <0>         0.0769
     19 H6          1.4019    3.1452    0.0056 H         1 <0>         0.0701
     20 H7          3.1793    1.9258    1.2314 H         1 <0>         0.0806
     21 H8          1.6465    1.9000    2.1359 H         1 <0>         0.0799
     22 H9         -1.0205   -0.3814    0.0098 H         1 <0>         0.0699
     23 H10         0.5123   -0.3556   -0.8948 H         1 <0>         0.0838
     24 H11        -0.7414   -1.8760    2.6672 H         1 <0>         0.0658
     25 H12        -2.1056   -2.0285    0.6867 H         1 <0>         0.0663
     26 H13        -1.0312   -3.2579   -0.0582 H         1 <0>         0.0786
     27 H14        -2.9454   -3.5889    2.3171 H         1 <0>         0.0659
     28 H15        -2.7824   -4.6319    0.8695 H         1 <0>         0.0688
     29 H16        -1.5266   -5.1785    3.2779 H         1 <0>         0.0657
     30 H17        -0.8755   -5.6927    1.6959 H         1 <0>         0.0672
     31 H18         0.9147   -4.3007    1.9803 H         1 <0>         0.0780
     32 H19         0.2636   -3.7864    3.5623 H         1 <0>         0.0676
@<TRIPOS>BOND
     1    1    8 1
     2    1    2 1
     3    1   16 1
     4    1   17 1
     5    2    3 1
     6    2   18 1
     7    2   19 1
     8    3    4 1
     9    3   20 1
    10    3   21 1
    11    4    5 1
    12    4    6 1
    13    4   15 1
    14    6    7 1
    15    6    8 1
    16    6    9 1
    17    8   22 1
    18    8   23 1
    19    9   10 1
    20   10   14 1
    21   10   11 1
    22   10   24 1
    23   11   12 1
    24   11   25 1
    25   11   26 1
    26   12   13 1
    27   12   27 1
    28   12   28 1
    29   13   14 1
    30   13   29 1
    31   13   30 1
    32   14   31 1
    33   14   32 1
@<TRIPOS>MOLECULE
ZINC63042281
   29    30     0     0     0
SMALL
USER_CHARGES

@<TRIPOS>ATOM
      1 C1          0.1548   -0.3434    1.7735 C.3       1 <0>        -0.1540
      2 C2         -0.2062   -0.1755    0.2962 C.3       1 <0>        -0.1185
      3 C3         -1.6500   -0.6282    0.0694 C.3       1 <0>        -0.0053
      4 H1         -2.3119   -0.0816    0.7411 H         1 <0>         0.1115
      5 C4         -1.7625   -2.1054    0.3453 C.2       1 <0>         0.1045
      6 N1         -1.1285   -3.0772   -0.2433 N.2       1 <0>        -0.4838
      7 C5         -1.3171   -4.3688    0.0973 C.ar      1 <0>         0.0816
      8 C6         -0.7259   -5.5382   -0.4248 C.ar      1 <0>        -0.0578
      9 C7         -1.0612   -6.7623    0.0672 C.ar      1 <0>        -0.1098
     10 C8         -1.9880   -6.9059    1.0905 C.ar      1 <0>        -0.0962
     11 C9         -2.5885   -5.7829    1.6281 C.ar      1 <0>        -0.0656
     12 C10        -2.2568   -4.5429    1.1385 C.ar      1 <0>        -0.1654
     13 S1         -2.7312   -2.8703    1.4896 S.3       1 <0>         0.0736
     14 C11        -2.0504   -0.3483   -1.3805 C.3       1 <0>         0.0009
     15 H2         -3.0433   -0.7566   -1.5686 H         1 <0>         0.0996
     16 C12        -2.0659    1.1624   -1.6228 C.3       1 <0>        -0.1595
     17 Cl1        -0.8614   -1.1231   -2.4927 Cl        1 <0>        -0.1552
     18 H3          1.1468    0.0706    1.9545 H         1 <0>         0.0616
     19 H4         -0.5760    0.1824    2.3881 H         1 <0>         0.0566
     20 H5          0.1507   -1.4027    2.0304 H         1 <0>         0.0506
     21 H6         -0.1055    0.8726    0.0144 H         1 <0>         0.0806
     22 H7          0.4646   -0.7815   -0.3128 H         1 <0>         0.0861
     23 H8         -0.0011   -5.4617   -1.2219 H         1 <0>         0.1328
     24 H9         -0.5952   -7.6432   -0.3491 H         1 <0>         0.1346
     25 H10        -2.2383   -7.8879    1.4638 H         1 <0>         0.1388
     26 H11        -3.3111   -5.8793    2.4250 H         1 <0>         0.1338
     27 H12        -1.0518    1.5537   -1.5424 H         1 <0>         0.0748
     28 H13        -2.4561    1.3665   -2.6199 H         1 <0>         0.0731
     29 H14        -2.7009    1.6431   -0.8787 H         1 <0>         0.0760
@<TRIPOS>BOND
     1    1    2 1
     2    1   18 1
     3    1   19 1
     4    1   20 1
     5    2    3 1
     6    2   21 1
     7    2   22 1
     8    3    4 1
     9    3    5 1
    10    3   14 1
    11    5   13 1
    12    5    6 2
    13    6    7 1
    14    7   12 ar
    15    7    8 ar
    16    8    9 ar
    17    8   23 1
    18    9   10 ar
    19    9   24 1
    20   10   11 ar
    21   10   25 1
    22   11   12 ar
    23   11   26 1
    24   12   13 1
    25   14   15 1
    26   14   16 1
    27   14   17 1
    28   16   27 1
    29   16   28 1
    30   16   29 1
@<TRIPOS>MOLECULE
ZINC06834255
   49    49     0     0     0
SMALL
USER_CHARGES
methyl 4-[2-(2-chloropropanoyl-ethyl-amino)propanoyl]-1,3,5-trimethyl-pyrrole-2-carboxylate
@<TRIPOS>ATOM
      1 C1         -1.1698    3.3042    8.7932 C.3       1 <0>        -0.1799
      2 C2         -0.4239    3.8969    7.5960 C.3       1 <0>         0.0943
      3 N1         -1.3793    4.2044    6.5289 N.am      1 <0>        -0.5953
      4 C3         -1.6031    3.2428    5.4465 C.3       1 <0>         0.1135
      5 H1         -2.3433    3.5690    4.8586 H         1 <0>         0.1136
      6 C4         -1.9843    1.8855    6.0410 C.3       1 <0>        -0.1584
      7 C5         -0.3423    3.0990    4.6337 C.2       1 <0>         0.4347
      8 O1          0.7298    3.3923    5.1201 O.2       1 <0>        -0.4293
      9 C6         -0.4112    2.6046    3.2550 C.2       1 <0>        -0.2636
     10 C7         -0.2242    1.2679    2.8296 C.2       1 <0>        -0.0172
     11 C8         -0.3803    1.2557    1.4753 C.2       1 <0>        -0.0525
     12 N2         -0.6479    2.5420    1.0569 N.pl3     1 <0>        -0.4052
     13 C9         -0.6714    3.3580    2.1206 C.2       1 <0>         0.1181
     14 C10        -0.9358    4.8413    2.0885 C.3       1 <0>        -0.1001
     15 C11        -0.8767    2.9516   -0.3309 C.3       1 <0>         0.0590
     16 C12        -0.2778    0.0757    0.6102 C.2       1 <0>         0.5372
     17 O2         -0.0368   -1.0136    1.0937 O.2       1 <0>        -0.4929
     18 O3         -0.4508    0.1989   -0.7217 O.3       1 <0>        -0.3639
     19 C13        -0.3351   -1.0109   -1.5162 C.3       1 <0>         0.0367
     20 C14         0.0832    0.0822    3.7075 C.3       1 <0>        -0.0968
     21 C15        -2.0525    5.3720    6.5428 C.2       1 <0>         0.5173
     22 O4         -2.9111    5.5869    5.7137 O.2       1 <0>        -0.5158
     23 C16        -1.7382    6.4105    7.5887 C.3       1 <0>        -0.0324
     24 H2         -1.1480    5.9571    8.3850 H         1 <0>         0.1215
     25 C17        -3.0425    6.9597    8.1701 C.3       1 <0>        -0.1490
     26 Cl1        -0.8015    7.7556    6.8376 Cl        1 <0>        -0.1370
     27 H3         -1.5979    2.3415    8.5141 H         1 <0>         0.0666
     28 H4         -0.4754    3.1666    9.6220 H         1 <0>         0.0736
     29 H5         -1.9675    3.9824    9.0963 H         1 <0>         0.0569
     30 H6          0.3086    3.1767    7.2315 H         1 <0>         0.1001
     31 H7          0.0859    4.8106    7.9017 H         1 <0>         0.0815
     32 H8         -2.9129    1.9830    6.6032 H         1 <0>         0.0767
     33 H9         -2.1205    1.1621    5.2370 H         1 <0>         0.0804
     34 H10        -1.1909    1.5444    6.7061 H         1 <0>         0.0703
     35 H11        -2.0055    5.0221    2.1937 H         1 <0>         0.0904
     36 H12        -0.4035    5.3231    2.9087 H         1 <0>         0.0855
     37 H13        -0.5895    5.2517    1.1399 H         1 <0>         0.0782
     38 H14         0.0724    3.2303   -0.7887 H         1 <0>         0.0837
     39 H15        -1.5542    3.8053   -0.3508 H         1 <0>         0.0913
     40 H16        -1.3186    2.1240   -0.8858 H         1 <0>         0.1050
     41 H17        -0.4958   -0.7720   -2.5674 H         1 <0>         0.1038
     42 H18         0.6605   -1.4358   -1.3882 H         1 <0>         0.0658
     43 H19        -1.0832   -1.7332   -1.1892 H         1 <0>         0.0660
     44 H20        -0.8428   -0.4378    3.9530 H         1 <0>         0.0775
     45 H21         0.7523   -0.5972    3.1794 H         1 <0>         0.0850
     46 H22         0.5623    0.4239    4.6249 H         1 <0>         0.0661
     47 H23        -3.6088    6.1466    8.6241 H         1 <0>         0.0765
     48 H24        -2.8152    7.7109    8.9265 H         1 <0>         0.0804
     49 H25        -3.6327    7.4131    7.3737 H         1 <0>         0.0819
@<TRIPOS>BOND
     1    1    2 1
     2    1   27 1
     3    1   28 1
     4    1   29 1
     5    2    3 1
     6    2   30 1
     7    2   31 1
     8    3    4 1
     9    3   21 am
    10    4    5 1
    11    4    6 1
    12    4    7 1
    13    6   32 1
    14    6   33 1
    15    6   34 1
    16    7    8 2
    17    7    9 1
    18    9   13 2
    19    9   10 1
    20   10   11 2
    21   10   20 1
    22   11   12 1
    23   11   16 1
    24   12   13 1
    25   12   15 1
    26   13   14 1
    27   14   35 1
    28   14   36 1
    29   14   37 1
    30   15   38 1
    31   15   39 1
    32   15   40 1
    33   16   17 2
    34   16   18 1
    35   18   19 1
    36   19   41 1
    37   19   42 1
    38   19   43 1
    39   20   44 1
    40   20   45 1
    41   20   46 1
    42   21   22 2
    43   21   23 1
    44   23   24 1
    45   23   25 1
    46   23   26 1
    47   25   47 1
    48   25   48 1
    49   25   49 1
@<TRIPOS>MOLECULE
ZINC22705900
   49    51     0     0     0
SMALL
USER_CHARGES
[2-(2-furylmethyl-methyl-amino)-2-oxo-ethyl] 2,5-dimethyl-1-phenyl-pyrrole-3-carboxylate
@<TRIPOS>ATOM
      1 C1          1.4778    4.8790    0.0149 C.3       1 <0>        -0.0870
      2 C2          0.6529    3.6178    0.0153 C.2       1 <0>         0.0129
      3 C3          1.1422    2.3659    0.0039 C.2       1 <0>        -0.1323
      4 C4         -0.0179    1.4667    0.0101 C.2       1 <0>        -0.2253
      5 C5         -1.1300    2.2813    0.0191 C.2       1 <0>         0.1298
      6 N1         -0.7125    3.5635    0.0280 N.pl3     1 <0>        -0.3908
      7 C6         -1.5583    4.6812    0.0421 C.ar      1 <0>         0.1059
      8 C7         -2.3771    4.9200    1.1375 C.ar      1 <0>        -0.1077
      9 C8         -3.2060    6.0248    1.1505 C.ar      1 <0>        -0.1059
     10 C9         -3.2289    6.8865    0.0693 C.ar      1 <0>        -0.1069
     11 C10        -2.4180    6.6485   -1.0253 C.ar      1 <0>        -0.1059
     12 C11        -1.5832    5.5483   -1.0418 C.ar      1 <0>        -0.1057
     13 C12        -2.5643    1.8188    0.0223 C.3       1 <0>        -0.0937
     14 C13         0.0021   -0.0041    0.0020 C.2       1 <0>         0.5462
     15 O1         -1.0422   -0.6261    0.0082 O.2       1 <0>        -0.5197
     16 O2          1.1784   -0.6621   -0.0122 O.3       1 <0>        -0.3271
     17 C14         1.1221   -2.1129   -0.0195 C.3       1 <0>         0.0517
     18 C15         2.5223   -2.6699   -0.0353 C.2       1 <0>         0.5172
     19 O3          3.4739   -1.9181   -0.0399 O.2       1 <0>        -0.5021
     20 N2          2.7169   -4.0035   -0.0442 N.am      1 <0>        -0.6129
     21 C16         1.5674   -4.9117   -0.0386 C.3       1 <0>         0.0685
     22 C17         4.0781   -4.5450   -0.0596 C.3       1 <0>         0.1935
     23 C18         4.5578   -4.7383    1.3559 C.2       1 <0>        -0.0363
     24 C19         4.4049   -5.8531    2.0930 C.2       1 <0>        -0.1953
     25 C20         5.0002   -5.5980    3.3498 C.2       1 <0>        -0.2195
     26 C21         5.4813   -4.3426    3.3055 C.2       1 <0>        -0.0325
     27 O4          5.2156   -3.8288    2.0934 O.3       1 <0>        -0.1639
     28 H1          2.5464    4.6182    0.0032 H         1 <0>         0.0877
     29 H2          1.2531    5.4643    0.9187 H         1 <0>         0.0688
     30 H3          1.2360    5.4750   -0.8775 H         1 <0>         0.0687
     31 H4          2.1832    2.0784   -0.0082 H         1 <0>         0.1574
     32 H5         -2.3632    4.2447    1.9803 H         1 <0>         0.1306
     33 H6         -3.8399    6.2136    2.0043 H         1 <0>         0.1343
     34 H7         -3.8811    7.7472    0.0798 H         1 <0>         0.1319
     35 H8         -2.4378    7.3235   -1.8682 H         1 <0>         0.1343
     36 H9         -0.9501    5.3630   -1.8970 H         1 <0>         0.1307
     37 H10        -3.2315    2.6933    0.0298 H         1 <0>         0.0679
     38 H11        -2.7505    1.2078    0.9178 H         1 <0>         0.0908
     39 H12        -2.7577    1.2178   -0.8784 H         1 <0>         0.0906
     40 H13         0.5980   -2.4640    0.8816 H         1 <0>         0.1025
     41 H14         0.5815   -2.4544   -0.9146 H         1 <0>         0.1040
     42 H15         1.9226   -5.9527   -0.0474 H         1 <0>         0.0861
     43 H16         0.9501   -4.7273   -0.9302 H         1 <0>         0.0705
     44 H17         0.9664   -4.7369    0.8660 H         1 <0>         0.0666
     45 H18         4.0820   -5.5123   -0.5834 H         1 <0>         0.1166
     46 H19         4.7460   -3.8432   -0.5805 H         1 <0>         0.1055
     47 H20         3.9198   -6.7673    1.7843 H         1 <0>         0.1478
     48 H21         5.0574   -6.2801    4.1852 H         1 <0>         0.1489
     49 H22         5.9983   -3.8357    4.1069 H         1 <0>         0.2026
@<TRIPOS>BOND
     1    1    2 1
     2    1   28 1
     3    1   29 1
     4    1   30 1
     5    2    6 1
     6    2    3 2
     7    3    4 1
     8    3   31 1
     9    4    5 2
    10    4   14 1
    11    5    6 1
    12    5   13 1
    13    6    7 1
    14    7   12 ar
    15    7    8 ar
    16    8    9 ar
    17    8   32 1
    18    9   10 ar
    19    9   33 1
    20   10   11 ar
    21   10   34 1
    22   11   12 ar
    23   11   35 1
    24   12   36 1
    25   13   37 1
    26   13   38 1
    27   13   39 1
    28   14   15 2
    29   14   16 1
    30   16   17 1
    31   17   18 1
    32   17   40 1
    33   17   41 1
    34   18   19 2
    35   18   20 am
    36   20   21 1
    37   20   22 1
    38   21   42 1
    39   21   43 1
    40   21   44 1
    41   22   23 1
    42   22   45 1
    43   22   46 1
    44   23   27 1
    45   23   24 2
    46   24   25 1
    47   24   47 1
    48   25   26 2
    49   25   48 1
    50   26   27 1
    51   26   49 1
@<TRIPOS>MOLECULE
ZINC43509403
   42    43     0     0     0
SMALL
USER_CHARGES

@<TRIPOS>ATOM
      1 C1          0.1427    1.6877    0.0509 C.3       1 <0>        -0.0790
      2 C2          0.0592    0.1830    0.0466 C.2       1 <0>         0.0899
      3 C3         -0.0104   -0.6313   -1.0885 C.2       1 <0>        -0.2377
      4 C4         -0.0723   -1.9181   -0.6747 C.2       1 <0>         0.0972
      5 N1         -0.0429   -1.9182    0.6745 N.pl3     1 <0>        -0.3733
      6 N2          0.0451   -0.5876    1.1038 N.2       1 <0>        -0.2902
      7 C5         -0.0893   -3.1011    1.5375 C.3       1 <0>         0.1395
      8 C6          1.3345   -3.5922    1.8065 C.3       1 <0>        -0.0405
      9 C7          1.2879   -4.7808    2.6737 C.1       1 <0>         0.2023
     10 N3          1.2520   -5.6980    3.3429 N.1       1 <0>        -0.4153
     11 C8         -0.1591   -3.1334   -1.5615 C.3       1 <0>        -0.1006
     12 C9         -0.0164   -0.1589   -2.5196 C.3       1 <0>        -0.0268
     13 C10         1.4216   -0.0782   -3.0360 C.3       1 <0>        -0.1032
     14 C11         1.4156    0.3942   -4.4670 C.2       1 <0>         0.4621
     15 O1          0.3687    0.6411   -5.0174 O.2       1 <0>        -0.4792
     16 O2          2.5738    0.5408   -5.1305 O.3       1 <0>        -0.2933
     17 C12         2.5173    0.8675   -6.4476 C.ar      1 <0>         0.1260
     18 C13         2.5557   -0.1321   -7.4116 C.ar      1 <0>        -0.1082
     19 C14         2.4981    0.1946   -8.7486 C.ar      1 <0>        -0.0508
     20 C15         2.4009    1.5339   -9.1355 C.ar      1 <0>        -0.0081
     21 C16         2.3625    2.5369   -8.1635 C.ar      1 <0>        -0.0503
     22 C17         2.4153    2.2010   -6.8273 C.ar      1 <0>        -0.0438
     23 Cl1         2.3605    3.4451   -5.6178 Cl        1 <0>        -0.0362
     24 C18         2.3413    1.8775  -10.5244 C.1       1 <0>         0.2483
     25 N4          2.2940    2.1501  -11.6262 N.1       1 <0>        -0.3939
     26 H1          1.1886    1.9936    0.0247 H         1 <0>         0.0792
     27 H2         -0.3734    2.0827   -0.8241 H         1 <0>         0.0792
     28 H3         -0.3266    2.0750    0.9553 H         1 <0>         0.0747
     29 H4         -0.5692   -2.8434    2.4816 H         1 <0>         0.1067
     30 H5         -0.6582   -3.8889    1.0439 H         1 <0>         0.1034
     31 H6          1.8145   -3.8499    0.8624 H         1 <0>         0.1148
     32 H7          1.9035   -2.8044    2.3002 H         1 <0>         0.1197
     33 H8          0.8458   -3.4831   -1.7981 H         1 <0>         0.0844
     34 H9         -0.7060   -3.9221   -1.0447 H         1 <0>         0.0732
     35 H10        -0.6800   -2.8741   -2.4833 H         1 <0>         0.0888
     36 H11        -0.5834   -0.8604   -3.1314 H         1 <0>         0.0792
     37 H12        -0.4781    0.8270   -2.5748 H         1 <0>         0.0827
     38 H13         1.9886    0.6234   -2.4241 H         1 <0>         0.1117
     39 H14         1.8833   -1.0641   -2.9807 H         1 <0>         0.1096
     40 H15         2.6312   -1.1671   -7.1123 H         1 <0>         0.1534
     41 H16         2.5284   -0.5835   -9.4970 H         1 <0>         0.1511
     42 H17         2.2874    3.5731   -8.4582 H         1 <0>         0.1533
@<TRIPOS>BOND
     1    1    2 1
     2    1   26 1
     3    1   27 1
     4    1   28 1
     5    2    6 2
     6    2    3 1
     7    3    4 2
     8    3   12 1
     9    4    5 1
    10    4   11 1
    11    5    6 1
    12    5    7 1
    13    7    8 1
    14    7   29 1
    15    7   30 1
    16    8    9 1
    17    8   31 1
    18    8   32 1
    19    9   10 3
    20   11   33 1
    21   11   34 1
    22   11   35 1
    23   12   13 1
    24   12   36 1
    25   12   37 1
    26   13   14 1
    27   13   38 1
    28   13   39 1
    29   14   15 2
    30   14   16 1
    31   16   17 1
    32   17   22 ar
    33   17   18 ar
    34   18   19 ar
    35   18   40 1
    36   19   20 ar
    37   19   41 1
    38   20   21 ar
    39   20   24 1
    40   21   22 ar
    41   21   42 1
    42   22   23 1
    43   24   25 3
@<TRIPOS>MOLECULE
ZINC52587768
   48    50     0     0     0
SMALL
USER_CHARGES

@<TRIPOS>ATOM
      1 C1         -0.5120    1.1725   -0.3801 C.3       1 <0>        -0.1164
      2 C2         -0.5728   -0.3229   -0.2039 C.2       1 <0>        -0.0948
      3 C3         -0.9056   -1.1415   -1.2668 C.2       1 <0>        -0.1567
      4 C4         -0.9513   -2.4825   -1.0745 C.2       1 <0>        -0.1651
      5 S1         -0.5155   -2.6233    0.6510 S.3       1 <0>         0.0310
      6 C5         -0.2965   -0.8857    0.9979 C.2       1 <0>        -0.1769
      7 C6          0.0930   -0.2180    2.2915 C.3       1 <0>         0.1991
      8 N1         -1.0718   -0.1534    3.1777 N.am      1 <0>        -0.5920
      9 C7         -1.4295   -1.3099    4.0028 C.3       1 <0>         0.0766
     10 C8         -1.8142    0.9700    3.2340 C.2       1 <0>         0.5909
     11 O1         -1.5532    1.9081    2.5065 O.2       1 <0>        -0.5201
     12 C9         -2.9465    1.0613    4.1809 C.2       1 <0>         0.0146
     13 C10        -3.8089    2.1835    4.1434 C.2       1 <0>        -0.0297
     14 C11        -4.8422    2.2329    5.0313 C.2       1 <0>        -0.1894
     15 C12        -4.9889    1.1582    5.9363 C.2       1 <0>         0.4807
     16 O2         -5.8991    1.1591    6.7484 O.2       1 <0>        -0.5212
     17 N2         -4.1177    0.1328    5.8962 N.am      1 <0>        -0.3376
     18 N3         -3.1522    0.0981    5.0507 N.2       1 <0>        -0.1577
     19 C13        -4.2791   -0.9766    6.8393 C.3       1 <0>         0.1126
     20 C14        -5.1821   -2.0452    6.2201 C.3       1 <0>         0.0420
     21 O3         -4.5362   -2.6110    5.0778 O.3       1 <0>        -0.3095
     22 C15        -5.2089   -3.5828    4.4070 C.ar      1 <0>         0.1272
     23 C16        -6.4672   -3.9796    4.8359 C.ar      1 <0>        -0.2092
     24 C17        -7.1491   -4.9673    4.1520 C.ar      1 <0>        -0.0799
     25 C18        -6.5784   -5.5607    3.0412 C.ar      1 <0>        -0.1562
     26 C19        -5.3242   -5.1674    2.6120 C.ar      1 <0>        -0.0798
     27 C20        -4.6408   -4.1758    3.2888 C.ar      1 <0>        -0.1482
     28 H1          0.5085    1.4685   -0.6234 H         1 <0>         0.0673
     29 H2         -1.1793    1.4705   -1.1887 H         1 <0>         0.0615
     30 H3         -0.8211    1.6601    0.5445 H         1 <0>         0.0926
     31 H4         -1.1262   -0.7189   -2.2359 H         1 <0>         0.1336
     32 H5         -1.1898   -3.2632   -1.7817 H         1 <0>         0.1853
     33 H6          0.8845   -0.7923    2.7730 H         1 <0>         0.0970
     34 H7          0.4499    0.7913    2.0863 H         1 <0>         0.1134
     35 H8         -1.0101   -1.1874    5.0014 H         1 <0>         0.0642
     36 H9         -2.5147   -1.3857    4.0712 H         1 <0>         0.1006
     37 H10        -1.0298   -2.2171    3.5496 H         1 <0>         0.0669
     38 H11        -3.6521    2.9796    3.4306 H         1 <0>         0.1641
     39 H12        -5.5272    3.0678    5.0427 H         1 <0>         0.1708
     40 H13        -3.3037   -1.4094    7.0615 H         1 <0>         0.1177
     41 H14        -4.7312   -0.6079    7.7601 H         1 <0>         0.1325
     42 H15        -5.3744   -2.8281    6.9537 H         1 <0>         0.0903
     43 H16        -6.1258   -1.5920    5.9165 H         1 <0>         0.0724
     44 H17        -6.9131   -3.5169    5.7039 H         1 <0>         0.1263
     45 H18        -8.1287   -5.2765    4.4854 H         1 <0>         0.1251
     46 H19        -7.1129   -6.3330    2.5081 H         1 <0>         0.1244
     47 H20        -4.8804   -5.6327    1.7443 H         1 <0>         0.1295
     48 H21        -3.6631   -3.8658    2.9505 H         1 <0>         0.1303
@<TRIPOS>BOND
     1    1    2 1
     2    1   28 1
     3    1   29 1
     4    1   30 1
     5    2    6 2
     6    2    3 1
     7    3    4 2
     8    3   31 1
     9    4    5 1
    10    4   32 1
    11    5    6 1
    12    6    7 1
    13    7    8 1
    14    7   33 1
    15    7   34 1
    16    8    9 1
    17    8   10 am
    18    9   35 1
    19    9   36 1
    20    9   37 1
    21   10   11 2
    22   10   12 1
    23   12   18 2
    24   12   13 1
    25   13   14 2
    26   13   38 1
    27   14   15 1
    28   14   39 1
    29   15   16 2
    30   15   17 am
    31   17   18 1
    32   17   19 1
    33   19   20 1
    34   19   40 1
    35   19   41 1
    36   20   21 1
    37   20   42 1
    38   20   43 1
    39   21   22 1
    40   22   27 ar
    41   22   23 ar
    42   23   24 ar
    43   23   44 1
    44   24   25 ar
    45   24   45 1
    46   25   26 ar
    47   25   46 1
    48   26   27 ar
    49   26   47 1
    50   27   48 1
@<TRIPOS>MOLECULE
ZINC65375106
   51    53     0     0     0
SMALL
USER_CHARGES

@<TRIPOS>ATOM
      1 C1         -0.0184    1.5028    0.0103 C.3       1 <0>        -0.0764
      2 C2          0.0021   -0.0041    0.0020 C.2       1 <0>         0.1032
      3 C3          0.0081   -0.8259   -1.1443 C.2       1 <0>        -0.1791
      4 C4          0.0276   -2.1247   -0.7183 C.2       1 <0>         0.1068
      5 N1          0.0335   -2.1106    0.6304 N.pl3     1 <0>        -0.3562
      6 N2          0.0230   -0.7767    1.0552 N.2       1 <0>        -0.2820
      7 C5          0.0527   -3.2886    1.5011 C.3       1 <0>         0.1589
      8 C6          1.4800   -3.6741    1.7933 C.2       1 <0>        -0.1901
      9 C7          1.8877   -3.7855    3.0332 C.2       1 <0>        -0.1482
     10 C8          0.0403   -3.3497   -1.5960 C.3       1 <0>        -0.1020
     11 C9         -0.0053   -0.3666   -2.5499 C.2       1 <0>         0.0834
     12 C10        -1.1181   -0.1185   -3.3305 C.2       1 <0>         0.0512
     13 N3         -0.6828    0.2801   -4.5418 N.2       1 <0>        -0.4714
     14 C11         0.6201    0.2925   -4.5545 C.2       1 <0>         0.1884
     15 N4          1.0866   -0.0955   -3.3392 N.pl3     1 <0>        -0.4484
     16 C12         2.4929   -0.2072   -2.9442 C.3       1 <0>         0.1250
     17 C13         2.9641   -1.6499   -3.1380 C.3       1 <0>        -0.6445
     18 S1          4.7054   -1.7882   -2.6488 S.o2      1 <0>         2.4224
     19 O1          5.4870   -1.0089   -3.5439 O.2       1 <0>        -0.9291
     20 O2          4.8011   -1.5408   -1.2528 O.2       1 <0>        -0.9278
     21 C14         5.0675   -3.5404   -2.9472 C.3       1 <0>        -0.6515
     22 C15        -2.5315   -0.2645   -2.9122 C.ar      1 <0>         0.0043
     23 C16        -2.8989   -1.2791   -2.0284 C.ar      1 <0>        -0.1057
     24 C17        -4.2171   -1.4100   -1.6425 C.ar      1 <0>        -0.1220
     25 C18        -5.1737   -0.5379   -2.1307 C.ar      1 <0>        -0.1199
     26 C19        -4.8154    0.4704   -3.0076 C.ar      1 <0>        -0.1209
     27 C20        -3.4994    0.6155   -3.3961 C.ar      1 <0>        -0.0945
     28 H1          1.0042    1.8801    0.0026 H         1 <0>         0.0767
     29 H2         -0.5455    1.8639   -0.8728 H         1 <0>         0.0781
     30 H3         -0.5286    1.8543    0.9071 H         1 <0>         0.0774
     31 H4         -0.4599   -3.0585    2.4351 H         1 <0>         0.1031
     32 H5         -0.4527   -4.1164    1.0037 H         1 <0>         0.1023
     33 H6          2.1667   -3.8586    0.9804 H         1 <0>         0.1134
     34 H7          2.9106   -4.0618    3.2426 H         1 <0>         0.1069
     35 H8          1.2010   -3.6010    3.8461 H         1 <0>         0.1031
     36 H9          1.0709   -3.6310   -1.8122 H         1 <0>         0.0779
     37 H10        -0.4601   -4.1702   -1.0818 H         1 <0>         0.0798
     38 H11        -0.4808   -3.1337   -2.5287 H         1 <0>         0.0905
     39 H12         1.2334    0.5721   -5.3984 H         1 <0>         0.2097
     40 H13         3.0974    0.4584   -3.5604 H         1 <0>         0.1144
     41 H14         2.5991    0.0720   -1.8959 H         1 <0>         0.1064
     42 H15         2.3596   -2.3154   -2.5218 H         1 <0>         0.1369
     43 H16         2.8579   -1.9290   -4.1863 H         1 <0>         0.1447
     44 H17         4.9067   -3.7705   -4.0005 H         1 <0>         0.1322
     45 H18         6.1050   -3.7469   -2.6846 H         1 <0>         0.1362
     46 H19         4.4084   -4.1569   -2.3360 H         1 <0>         0.1291
     47 H20        -2.1532   -1.9610   -1.6472 H         1 <0>         0.1198
     48 H21        -4.5029   -2.1952   -0.9582 H         1 <0>         0.1187
     49 H22        -6.2044   -0.6448   -1.8263 H         1 <0>         0.1202
     50 H23        -5.5667    1.1480   -3.3857 H         1 <0>         0.1229
     51 H24        -3.2201    1.4060   -4.0769 H         1 <0>         0.1256
@<TRIPOS>BOND
     1    1    2 1
     2    1   28 1
     3    1   29 1
     4    1   30 1
     5    2    6 2
     6    2    3 1
     7    3    4 2
     8    3   11 1
     9    4    5 1
    10    4   10 1
    11    5    6 1
    12    5    7 1
    13    7    8 1
    14    7   31 1
    15    7   32 1
    16    8    9 2
    17    8   33 1
    18    9   34 1
    19    9   35 1
    20   10   36 1
    21   10   37 1
    22   10   38 1
    23   11   15 1
    24   11   12 2
    25   12   13 1
    26   12   22 1
    27   13   14 2
    28   14   15 1
    29   14   39 1
    30   15   16 1
    31   16   17 1
    32   16   40 1
    33   16   41 1
    34   17   18 1
    35   17   42 1
    36   17   43 1
    37   18   19 2
    38   18   20 2
    39   18   21 1
    40   21   44 1
    41   21   45 1
    42   21   46 1
    43   22   27 ar
    44   22   23 ar
    45   23   24 ar
    46   23   47 1
    47   24   25 ar
    48   24   48 1
    49   25   26 ar
    50   25   49 1
    51   26   27 ar
    52   26   50 1
    53   27   51 1
@<TRIPOS>MOLECULE
ZINC02978515
   47    48     0     0     0
SMALL
USER_CHARGES
2-[(3,5-dichlorophenyl)-methylsulfonyl-amino]-N-[2-(p-tolylsulfanyl)ethyl]acetamide
@<TRIPOS>ATOM
      1 C1          5.7961   11.2173    0.4397 C.3       1 <0>        -0.1165
      2 C2          5.7279    9.7119    0.4445 C.ar      1 <0>        -0.0883
      3 C3          6.8893    8.9690    0.5536 C.ar      1 <0>        -0.1007
      4 C4          6.8306    7.5894    0.5579 C.ar      1 <0>        -0.0936
      5 C5          5.6025    6.9475    0.4529 C.ar      1 <0>        -0.0915
      6 C6          4.4380    7.6972    0.3381 C.ar      1 <0>        -0.1292
      7 C7          4.5038    9.0765    0.3403 C.ar      1 <0>        -0.1015
      8 S1          5.5227    5.1873    0.4580 S.3       1 <0>        -0.0907
      9 C8          3.7515    4.8279    0.3026 C.3       1 <0>        -0.1289
     10 C9          3.5373    3.3130    0.2941 C.3       1 <0>         0.1376
     11 N1          2.1069    3.0227    0.1686 N.am      1 <0>        -0.7282
     12 C10         1.6786    1.7451    0.1393 C.2       1 <0>         0.4991
     13 O1          2.4774    0.8358    0.2168 O.2       1 <0>        -0.5109
     14 C11         0.2071    1.4465    0.0102 C.3       1 <0>         0.1022
     15 N2          0.0021   -0.0041    0.0020 N.pl3     1 <0>        -0.9307
     16 C12         0.1153   -0.7186   -1.1927 C.ar      1 <0>         0.1584
     17 C13         1.0728   -1.7169   -1.3183 C.ar      1 <0>        -0.0696
     18 C14         1.1791   -2.4261   -2.5001 C.ar      1 <0>        -0.0146
     19 C15         0.3400   -2.1347   -3.5612 C.ar      1 <0>        -0.0963
     20 C16        -0.6111   -1.1367   -3.4408 C.ar      1 <0>        -0.0199
     21 C17        -0.7257   -0.4283   -2.2594 C.ar      1 <0>        -0.1113
     22 Cl1        -1.6617   -0.7746   -4.7745 Cl        1 <0>        -0.0491
     23 Cl2         2.3712   -3.6784   -2.6557 Cl        1 <0>        -0.0439
     24 S2         -0.3639   -0.7965    1.4093 S.o2      1 <0>         2.5962
     25 O2         -0.0199   -2.1529    1.1616 O.2       1 <0>        -0.9326
     26 O3          0.2975   -0.0553    2.4254 O.2       1 <0>        -0.9349
     27 C18        -2.1617   -0.6298    1.5842 C.3       1 <0>        -0.6709
     28 H1          5.9040   11.5728   -0.5851 H         1 <0>         0.0723
     29 H2          4.8814   11.6239    0.8709 H         1 <0>         0.0674
     30 H3          6.6525   11.5441    1.0296 H         1 <0>         0.0684
     31 H4          7.8434    9.4685    0.6351 H         1 <0>         0.1293
     32 H5          7.7380    7.0099    0.6431 H         1 <0>         0.1294
     33 H6          3.4822    7.2017    0.2519 H         1 <0>         0.1218
     34 H7          3.5989    9.6598    0.2556 H         1 <0>         0.1258
     35 H8          3.3746    5.2534   -0.6275 H         1 <0>         0.0957
     36 H9          3.2166    5.2657    1.1454 H         1 <0>         0.0964
     37 H10         3.9142    2.8875    1.2241 H         1 <0>         0.0827
     38 H11         4.0722    2.8752   -0.5488 H         1 <0>         0.0813
     39 H12         1.4680    3.7499    0.1066 H         1 <0>         0.4021
     40 H13        -0.1698    1.8720   -0.9199 H         1 <0>         0.1193
     41 H14        -0.3278    1.8843    0.8530 H         1 <0>         0.1205
     42 H15         1.7307   -1.9419   -0.4919 H         1 <0>         0.1528
     43 H16         0.4277   -2.6870   -4.4852 H         1 <0>         0.1494
     44 H17        -1.4686    0.3499   -2.1657 H         1 <0>         0.1462
     45 H18        -2.6482   -0.9599    0.6663 H         1 <0>         0.1327
     46 H19        -2.5041   -1.2432    2.4177 H         1 <0>         0.1358
     47 H20        -2.4131    0.4137    1.7736 H         1 <0>         0.1309
@<TRIPOS>BOND
     1    1    2 1
     2    1   28 1
     3    1   29 1
     4    1   30 1
     5    2    7 ar
     6    2    3 ar
     7    3    4 ar
     8    3   31 1
     9    4    5 ar
    10    4   32 1
    11    5    6 ar
    12    5    8 1
    13    6    7 ar
    14    6   33 1
    15    7   34 1
    16    8    9 1
    17    9   10 1
    18    9   35 1
    19    9   36 1
    20   10   11 1
    21   10   37 1
    22   10   38 1
    23   11   12 am
    24   11   39 1
    25   12   13 2
    26   12   14 1
    27   14   15 1
    28   14   40 1
    29   14   41 1
    30   15   16 1
    31   15   24 1
    32   16   21 ar
    33   16   17 ar
    34   17   18 ar
    35   17   42 1
    36   18   19 ar
    37   18   23 1
    38   19   20 ar
    39   19   43 1
    40   20   21 ar
    41   20   22 1
    42   21   44 1
    43   24   25 2
    44   24   26 2
    45   24   27 1
    46   27   45 1
    47   27   46 1
    48   27   47 1
@<TRIPOS>MOLECULE
ZINC13020416
   43    45     0     0     0
SMALL
USER_CHARGES
2-[(4-fluorophenoxy)methyl]-N-[2-(2,2,2-trifluoroethoxy)phenyl]thiazole-4-carboxamide
@<TRIPOS>ATOM
      1 C1         -7.4481    6.8423    5.2427 C.ar      1 <0>        -0.1253
      2 C2         -7.3006    6.2478    6.4824 C.ar      1 <0>        -0.0955
      3 C3         -6.3783    5.2337    6.6616 C.ar      1 <0>        -0.1844
      4 C4         -5.5984    4.8102    5.5977 C.ar      1 <0>         0.0952
      5 C5         -5.7467    5.4083    4.3483 C.ar      1 <0>         0.1308
      6 C6         -6.6710    6.4287    4.1773 C.ar      1 <0>        -0.0954
      7 N1         -4.9607    4.9847    3.2691 N.am      1 <0>        -0.6456
      8 C7         -5.3958    5.1659    2.0065 C.2       1 <0>         0.5967
      9 O1         -6.5124    5.6045    1.8050 O.2       1 <0>        -0.5136
     10 C8         -4.5196    4.8330    0.8709 C.2       1 <0>        -0.0122
     11 C9         -4.9366    5.0074   -0.4243 C.2       1 <0>        -0.1566
     12 S1         -3.5452    4.4708   -1.3113 S.3       1 <0>         0.1864
     13 C10        -2.5336    4.0633    0.0368 C.2       1 <0>         0.0513
     14 N2         -3.2931    4.3453    1.0635 N.2       1 <0>        -0.4550
     15 C11        -1.1302    3.5144    0.0276 C.3       1 <0>         0.1531
     16 O2         -1.1774    2.0862    0.0132 O.3       1 <0>        -0.3044
     17 C12         0.0128    1.4294    0.0034 C.ar      1 <0>         0.1208
     18 C13         1.2008    2.1454    0.0019 C.ar      1 <0>        -0.1802
     19 C14         2.4095    1.4767   -0.0134 C.ar      1 <0>        -0.1111
     20 C15         2.4355    0.0925   -0.0275 C.ar      1 <0>         0.0641
     21 C16         1.2505   -0.6234   -0.0265 C.ar      1 <0>        -0.1114
     22 C17         0.0403    0.0427   -0.0108 C.ar      1 <0>        -0.1173
     23 F1          3.6183   -0.5602   -0.0420 F         1 <0>        -0.1387
     24 O3         -4.6902    3.8134    5.7727 O.3       1 <0>        -0.3034
     25 C18        -4.5928    3.2467    7.0809 C.3       1 <0>         0.0163
     26 C19        -3.5268    2.1492    7.0832 C.3       1 <0>         0.4651
     27 F2         -2.2922    2.6976    6.7195 F         1 <0>        -0.1723
     28 F3         -3.4315    1.5944    8.3639 F         1 <0>        -0.1699
     29 F4         -3.8819    1.1522    6.1683 F         1 <0>        -0.1718
     30 H1         -8.1694    7.6347    5.1076 H         1 <0>         0.1324
     31 H2         -7.9074    6.5768    7.3130 H         1 <0>         0.1310
     32 H3         -6.2654    4.7717    7.6313 H         1 <0>         0.1338
     33 H4         -6.7857    6.8973    3.2111 H         1 <0>         0.1553
     34 H5         -4.1033    4.5609    3.4306 H         1 <0>         0.4252
     35 H6         -5.8804    5.3802   -0.7938 H         1 <0>         0.2150
     36 H7         -0.6024    3.8515    0.9197 H         1 <0>         0.1032
     37 H8         -0.6069    3.8696   -0.8601 H         1 <0>         0.0974
     38 H9          1.1808    3.2252    0.0126 H         1 <0>         0.1396
     39 H10         3.3347    2.0340   -0.0139 H         1 <0>         0.1408
     40 H11         1.2722   -1.7032   -0.0375 H         1 <0>         0.1449
     41 H12        -0.8840   -0.5160   -0.0092 H         1 <0>         0.1432
     42 H13        -4.3161    4.0235    7.7937 H         1 <0>         0.1115
     43 H14        -5.5547    2.8195    7.3643 H         1 <0>         0.1113
@<TRIPOS>BOND
     1    1    6 ar
     2    1    2 ar
     3    1   30 1
     4    2    3 ar
     5    2   31 1
     6    3    4 ar
     7    3   32 1
     8    4    5 ar
     9    4   24 1
    10    5    6 ar
    11    5    7 1
    12    6   33 1
    13    7    8 am
    14    7   34 1
    15    8    9 2
    16    8   10 1
    17   10   14 1
    18   10   11 2
    19   11   12 1
    20   11   35 1
    21   12   13 1
    22   13   14 2
    23   13   15 1
    24   15   16 1
    25   15   36 1
    26   15   37 1
    27   16   17 1
    28   17   22 ar
    29   17   18 ar
    30   18   19 ar
    31   18   38 1
    32   19   20 ar
    33   19   39 1
    34   20   21 ar
    35   20   23 1
    36   21   22 ar
    37   21   40 1
    38   22   41 1
    39   24   25 1
    40   25   26 1
    41   25   42 1
    42   25   43 1
    43   26   27 1
    44   26   28 1
    45   26   29 1
@<TRIPOS>MOLECULE
ZINC23430671
   47    49     0     0     0
SMALL
USER_CHARGES
ethyl 4-[(2,3-difluorophenyl)methylamino]-2-[4-(trifluoromethyl)phenyl]pyrimidine-5-carboxylate
@<TRIPOS>ATOM
      1 C1         -4.0632   -2.1184    0.2612 C.3       1 <0>        -0.1568
      2 C2         -4.1116   -0.5937    0.1431 C.3       1 <0>         0.0613
      3 O1         -2.7591   -0.0655    0.1375 O.3       1 <0>        -0.3470
      4 C3         -2.6250    1.2720    0.0385 C.2       1 <0>         0.5405
      5 O2         -3.6115    1.9775   -0.0411 O.2       1 <0>        -0.5207
      6 C4         -1.2840    1.8782    0.0266 C.ar      1 <0>        -0.3200
      7 C5         -0.1343    1.0803   -0.0029 C.ar      1 <0>         0.2557
      8 N1          1.0502    1.6621   -0.0182 N.ar      1 <0>        -0.5603
      9 C6          1.1655    2.9852   -0.0012 C.ar      1 <0>         0.4338
     10 N2          0.1076    3.7828    0.0323 N.ar      1 <0>        -0.5736
     11 C7         -1.1215    3.2807    0.0497 C.ar      1 <0>         0.5007
     12 N3         -2.2195    4.1139    0.0846 N.pl3     1 <0>        -0.6919
     13 C8         -2.0368    5.5610    0.2218 C.3       1 <0>         0.1630
     14 C9         -3.3830    6.2383    0.2335 C.ar      1 <0>        -0.1190
     15 C10        -3.9039    6.7206    1.4199 C.ar      1 <0>        -0.0800
     16 C11        -5.1386    7.3416    1.4323 C.ar      1 <0>        -0.0996
     17 C12        -5.8552    7.4822    0.2584 C.ar      1 <0>        -0.1159
     18 C13        -5.3364    7.0011   -0.9307 C.ar      1 <0>         0.0673
     19 C14        -4.0951    6.3826   -0.9441 C.ar      1 <0>         0.0850
     20 F1         -3.5840    5.9169   -2.1048 F         1 <0>        -0.1211
     21 F2         -6.0358    7.1385   -2.0784 F         1 <0>        -0.1250
     22 C15         2.5191    3.5883   -0.0196 C.ar      1 <0>        -0.0252
     23 C16         2.6679    4.9747   -0.0082 C.ar      1 <0>        -0.0653
     24 C17         3.9309    5.5303   -0.0206 C.ar      1 <0>        -0.0823
     25 C18         5.0480    4.7150   -0.0551 C.ar      1 <0>        -0.1591
     26 C19         4.9065    3.3389   -0.0719 C.ar      1 <0>        -0.0816
     27 C20         3.6488    2.7716   -0.0544 C.ar      1 <0>        -0.0628
     28 C21         6.4244    5.3283   -0.0749 C.3       1 <0>         0.5068
     29 F3          6.8229    5.5370   -1.3996 F         1 <0>        -0.1740
     30 F4          6.3995    6.5518    0.6029 F         1 <0>        -0.1752
     31 F5          7.3285    4.4653    0.5536 F         1 <0>        -0.1748
     32 H1         -5.0878   -2.5185    0.2654 H         1 <0>         0.0841
     33 H2         -3.5566   -2.3978    1.1968 H         1 <0>         0.0695
     34 H3         -3.5104   -2.5350   -0.5937 H         1 <0>         0.0697
     35 H4         -4.6182   -0.3143   -0.7925 H         1 <0>         0.0748
     36 H5         -4.6644   -0.1771    0.9980 H         1 <0>         0.0745
     37 H6         -0.2155    0.0035   -0.0174 H         1 <0>         0.1845
     38 H7         -3.2326    3.6921    0.0094 H         1 <0>         0.4535
     39 H8         -1.5097    5.7764    1.1630 H         1 <0>         0.0895
     40 H9         -1.4441    5.9377   -0.6249 H         1 <0>         0.0878
     41 H10        -3.3456    6.6116    2.3380 H         1 <0>         0.1438
     42 H11        -5.5443    7.7170    2.3602 H         1 <0>         0.1457
     43 H12        -6.8200    7.9674    0.2695 H         1 <0>         0.1498
     44 H13         1.7964    5.6123    0.0146 H         1 <0>         0.1493
     45 H14         4.0475    6.6040   -0.0076 H         1 <0>         0.1431
     46 H15         5.7823    2.7074   -0.0992 H         1 <0>         0.1442
     47 H16         3.5396    1.6972   -0.0679 H         1 <0>         0.1534
@<TRIPOS>BOND
     1    1    2 1
     2    1   32 1
     3    1   33 1
     4    1   34 1
     5    2    3 1
     6    2   35 1
     7    2   36 1
     8    3    4 1
     9    4    5 2
    10    4    6 1
    11    6   11 ar
    12    6    7 ar
    13    7    8 ar
    14    7   37 1
    15    8    9 ar
    16    9   10 ar
    17    9   22 1
    18   10   11 ar
    19   11   12 1
    20   12   13 1
    21   12   38 1
    22   13   14 1
    23   13   39 1
    24   13   40 1
    25   14   19 ar
    26   14   15 ar
    27   15   16 ar
    28   15   41 1
    29   16   17 ar
    30   16   42 1
    31   17   18 ar
    32   17   43 1
    33   18   19 ar
    34   18   21 1
    35   19   20 1
    36   22   27 ar
    37   22   23 ar
    38   23   24 ar
    39   23   44 1
    40   24   25 ar
    41   24   45 1
    42   25   26 ar
    43   25   28 1
    44   26   27 ar
    45   26   46 1
    46   27   47 1
    47   28   29 1
    48   28   30 1
    49   28   31 1
@<TRIPOS>MOLECULE
ZINC35575005
   53    56     0     0     0
SMALL
USER_CHARGES

@<TRIPOS>ATOM
      1 C1         -0.1079    1.2434   -0.0184 C.2       1 <0>        -0.1678
      2 C2         -0.0788   -0.0662   -0.0304 C.2       1 <0>        -0.1594
      3 C3         -1.3644   -0.8477   -0.1187 C.3       1 <0>         0.0865
      4 O1         -1.2178   -1.8992   -1.0752 O.3       1 <0>        -0.3032
      5 C4         -2.2930   -2.7034   -1.2767 C.ar      1 <0>         0.1947
      6 C5         -3.4638   -2.4860   -0.5776 C.ar      1 <0>        -0.2500
      7 C6         -4.5649   -3.3056   -0.7799 C.ar      1 <0>        -0.0396
      8 C7         -4.5106   -4.3481   -1.6790 C.ar      1 <0>        -0.1799
      9 C8         -3.3433   -4.5899   -2.3970 C.ar      1 <0>         0.1590
     10 C9         -2.2230   -3.7589   -2.2023 C.ar      1 <0>        -0.1445
     11 C10        -1.2021   -4.2321   -3.0590 C.2       1 <0>        -0.0670
     12 C11        -1.6958   -5.2985   -3.7423 C.2       1 <0>        -0.0079
     13 N1         -2.9978   -5.5313   -3.3382 N.pl3     1 <0>        -0.4664
     14 C12        -3.8712   -6.5934   -3.8434 C.3       1 <0>         0.1396
     15 C13        -3.8022   -7.7823   -2.9200 C.ar      1 <0>        -0.1338
     16 C14        -2.8587   -8.7694   -3.1336 C.ar      1 <0>        -0.1291
     17 C15        -2.7951   -9.8612   -2.2850 C.ar      1 <0>         0.1046
     18 C16        -3.6767   -9.9645   -1.2222 C.ar      1 <0>        -0.1134
     19 C17        -4.6198   -8.9777   -1.0087 C.ar      1 <0>        -0.1194
     20 C18        -4.6801   -7.8829   -1.8544 C.ar      1 <0>         0.1151
     21 F1         -5.5990   -6.9155   -1.6427 F         1 <0>        -0.1233
     22 F2         -1.8731  -10.8264   -2.4940 F         1 <0>        -0.1229
     23 C19        -0.9593   -6.0866   -4.7398 C.2       1 <0>         0.5888
     24 O2          0.1390   -5.7205   -5.1141 O.2       1 <0>        -0.5102
     25 N2         -1.5003   -7.2150   -5.2403 N.am      1 <0>        -0.7415
     26 C20        -0.8223   -7.9358   -6.3206 C.3       1 <0>         0.1655
     27 C21        -1.6280   -9.1529   -6.6954 C.ar      1 <0>         0.0946
     28 C22        -2.5187   -9.0843   -7.7502 C.ar      1 <0>        -0.1536
     29 C23        -3.2550  -10.2096   -8.0868 C.ar      1 <0>        -0.0739
     30 C24        -3.0671  -11.3671   -7.3466 C.ar      1 <0>        -0.1618
     31 C25        -2.1586  -11.3604   -6.3054 C.ar      1 <0>         0.1031
     32 N3         -1.4712  -10.2725   -6.0168 N.ar      1 <0>        -0.4657
     33 H1          0.8133    1.8034    0.0449 H         1 <0>         0.1091
     34 H2         -1.0529    1.7631   -0.0764 H         1 <0>         0.1000
     35 H3          0.8664   -0.5859    0.0231 H         1 <0>         0.1211
     36 H4         -1.5982   -1.2739    0.8569 H         1 <0>         0.0748
     37 H5         -2.1721   -0.1846   -0.4286 H         1 <0>         0.0703
     38 H6         -3.5226   -1.6732    0.1311 H         1 <0>         0.1305
     39 H7         -5.4743   -3.1245   -0.2263 H         1 <0>         0.1311
     40 H8         -5.3750   -4.9786   -1.8265 H         1 <0>         0.1340
     41 H9         -0.2084   -3.8198   -3.1537 H         1 <0>         0.1607
     42 H10        -4.8972   -6.2286   -3.8901 H         1 <0>         0.1164
     43 H11        -3.5448   -6.8885   -4.8407 H         1 <0>         0.1083
     44 H12        -2.1714   -8.6891   -3.9627 H         1 <0>         0.1550
     45 H13        -3.6272  -10.8165   -0.5604 H         1 <0>         0.1525
     46 H14        -5.3077   -9.0584   -0.1800 H         1 <0>         0.1534
     47 H15        -2.3386   -7.5498   -4.8853 H         1 <0>         0.3998
     48 H16        -0.7253   -7.2830   -7.1881 H         1 <0>         0.0924
     49 H17         0.1680   -8.2446   -5.9857 H         1 <0>         0.0951
     50 H18        -2.6397   -8.1655   -8.3048 H         1 <0>         0.1391
     51 H19        -3.9586  -10.1853   -8.9058 H         1 <0>         0.1396
     52 H20        -3.6240  -12.2623   -7.5806 H         1 <0>         0.1395
     53 H21        -2.0064  -12.2578   -5.7241 H         1 <0>         0.1604
@<TRIPOS>BOND
     1    1    2 2
     2    1   33 1
     3    1   34 1
     4    2    3 1
     5    2   35 1
     6    3    4 1
     7    3   36 1
     8    3   37 1
     9    4    5 1
    10    5   10 ar
    11    5    6 ar
    12    6    7 ar
    13    6   38 1
    14    7    8 ar
    15    7   39 1
    16    8    9 ar
    17    8   40 1
    18    9   13 1
    19    9   10 ar
    20   10   11 1
    21   11   12 2
    22   11   41 1
    23   12   13 1
    24   12   23 1
    25   13   14 1
    26   14   15 1
    27   14   42 1
    28   14   43 1
    29   15   20 ar
    30   15   16 ar
    31   16   17 ar
    32   16   44 1
    33   17   18 ar
    34   17   22 1
    35   18   19 ar
    36   18   45 1
    37   19   20 ar
    38   19   46 1
    39   20   21 1
    40   23   24 2
    41   23   25 am
    42   25   26 1
    43   25   47 1
    44   26   27 1
    45   26   48 1
    46   26   49 1
    47   27   32 ar
    48   27   28 ar
    49   28   29 ar
    50   28   50 1
    51   29   30 ar
    52   29   51 1
    53   30   31 ar
    54   30   52 1
    55   31   32 ar
    56   31   53 1
@<TRIPOS>MOLECULE
ZINC59291643
   42    44     0     0     0
SMALL
USER_CHARGES

@<TRIPOS>ATOM
      1 C1         -0.0167    1.3830    0.0096 C.ar      1 <0>        -0.1343
      2 C2          1.1706    2.0890    0.0021 C.ar      1 <0>        -0.0683
      3 C3          2.3781    1.4136   -0.0135 C.ar      1 <0>        -0.0708
      4 C4          2.3989    0.0301   -0.0211 C.ar      1 <0>        -0.0673
      5 C5          1.2137   -0.6795   -0.0136 C.ar      1 <0>        -0.1971
      6 C6          0.0021   -0.0041    0.0020 C.ar      1 <0>         0.1355
      7 O1         -1.1651   -0.7005    0.0099 O.3       1 <0>        -0.3057
      8 C7         -1.0700   -2.1263    0.0013 C.3       1 <0>         0.1608
      9 C8         -2.4541   -2.7222    0.0118 C.2       1 <0>         0.0066
     10 N1         -3.2382   -3.0565   -0.9935 N.2       1 <0>        -0.1992
     11 N2         -4.3762   -3.5480   -0.7484 N.2       1 <0>        -0.3009
     12 C9         -4.8028   -3.7365    0.4848 C.2       1 <0>         0.2410
     13 S1         -3.4934   -3.1829    1.3911 S.3       1 <0>         0.1183
     14 N3         -6.0142   -4.2603    0.9234 N.am      1 <0>        -0.6133
     15 C10        -6.9404   -4.6568    0.0283 C.2       1 <0>         0.5145
     16 O2         -6.7176   -4.5568   -1.1597 O.2       1 <0>        -0.4581
     17 C11        -8.2531   -5.2244    0.5035 C.3       1 <0>        -0.1177
     18 C12        -9.1167   -5.5928   -0.7045 C.3       1 <0>        -0.1022
     19 S2        -10.6967   -6.2761   -0.1325 S.3       1 <0>        -0.0979
     20 C13       -11.5650   -6.6456   -1.6205 C.ar      1 <0>        -0.0815
     21 C14       -10.9741   -6.3929   -2.8525 C.ar      1 <0>        -0.1199
     22 C15       -11.6571   -6.6835   -4.0169 C.ar      1 <0>        -0.0887
     23 C16       -12.9290   -7.2259   -3.9577 C.ar      1 <0>        -0.0390
     24 C17       -13.5202   -7.4787   -2.7322 C.ar      1 <0>        -0.0908
     25 C18       -12.8399   -7.1956   -1.5643 C.ar      1 <0>        -0.0865
     26 Cl1       -13.7847   -7.5894   -5.4238 Cl        1 <0>        -0.0641
     27 Cl2         3.8689    2.3031   -0.0241 Cl        1 <0>        -0.0668
     28 H1         -0.9590    1.9105    0.0260 H         1 <0>         0.1423
     29 H2          1.1564    3.1689    0.0080 H         1 <0>         0.1427
     30 H3          3.3424   -0.4953   -0.0333 H         1 <0>         0.1389
     31 H4          1.2303   -1.7593   -0.0203 H         1 <0>         0.1395
     32 H5         -0.5419   -2.4498   -0.8957 H         1 <0>         0.1093
     33 H6         -0.5243   -2.4593    0.8841 H         1 <0>         0.0985
     34 H7         -6.1924   -4.3403    1.8735 H         1 <0>         0.4321
     35 H8         -8.0677   -6.1157    1.1030 H         1 <0>         0.1164
     36 H9         -8.7726   -4.4813    1.1084 H         1 <0>         0.1165
     37 H10        -9.3020   -4.7016   -1.3040 H         1 <0>         0.1019
     38 H11        -8.5972   -6.3360   -1.3094 H         1 <0>         0.1018
     39 H12        -9.9817   -5.9693   -2.8993 H         1 <0>         0.1350
     40 H13       -11.1984   -6.4870   -4.9747 H         1 <0>         0.1387
     41 H14       -14.5130   -7.9017   -2.6892 H         1 <0>         0.1408
     42 H15       -13.2999   -7.3975   -0.6083 H         1 <0>         0.1391
@<TRIPOS>BOND
     1    1    6 ar
     2    1    2 ar
     3    1   28 1
     4    2    3 ar
     5    2   29 1
     6    3    4 ar
     7    3   27 1
     8    4    5 ar
     9    4   30 1
    10    5    6 ar
    11    5   31 1
    12    6    7 1
    13    7    8 1
    14    8    9 1
    15    8   32 1
    16    8   33 1
    17    9   13 1
    18    9   10 2
    19   10   11 1
    20   11   12 2
    21   12   13 1
    22   12   14 1
    23   14   15 am
    24   14   34 1
    25   15   16 2
    26   15   17 1
    27   17   18 1
    28   17   35 1
    29   17   36 1
    30   18   19 1
    31   18   37 1
    32   18   38 1
    33   19   20 1
    34   20   25 ar
    35   20   21 ar
    36   21   22 ar
    37   21   39 1
    38   22   23 ar
    39   22   40 1
    40   23   24 ar
    41   23   26 1
    42   24   25 ar
    43   24   41 1
    44   25   42 1
@<TRIPOS>MOLECULE
ZINC06219450
   45    46     0     0     0
SMALL
USER_CHARGES
2-ethoxy-N-[2-propoxy-5-(trifluoromethyl)phenyl]-pyridine-3-carboxamide
@<TRIPOS>ATOM
      1 C1         -0.7382    1.6140    1.2563 C.3       1 <0>        -0.1516
      2 C2         -0.0216    1.1111    0.0015 C.3       1 <0>        -0.1232
      3 C3         -0.7546    1.6182   -1.2421 C.3       1 <0>         0.0558
      4 O1         -0.0852    1.1486   -2.4140 O.3       1 <0>        -0.3116
      5 C4         -0.6123    1.5124   -3.6136 C.ar      1 <0>         0.1407
      6 C5         -1.7517    2.2991   -3.6615 C.ar      1 <0>        -0.1932
      7 C6         -2.2831    2.6729   -4.8818 C.ar      1 <0>        -0.0412
      8 C7         -1.6871    2.2543   -6.0572 C.ar      1 <0>        -0.2030
      9 C8         -0.5536    1.4647   -6.0182 C.ar      1 <0>        -0.0367
     10 C9         -0.0112    1.0903   -4.7973 C.ar      1 <0>         0.1188
     11 N1          1.1377    0.2904   -4.7551 N.am      1 <0>        -0.6623
     12 C10         1.3340   -0.6572   -5.6931 C.2       1 <0>         0.5669
     13 O2          0.5559   -0.7641   -6.6216 O.2       1 <0>        -0.4934
     14 C11         2.4925   -1.5647   -5.5936 C.ar      1 <0>        -0.2172
     15 C12         3.3992   -1.4490   -4.5332 C.ar      1 <0>        -0.0048
     16 C13         4.4668   -2.3275   -4.4831 C.ar      1 <0>        -0.2206
     17 C14         4.6128   -3.2784   -5.4774 C.ar      1 <0>         0.1754
     18 N2          3.7492   -3.3664   -6.4703 N.ar      1 <0>        -0.5442
     19 C15         2.7088   -2.5556   -6.5629 C.ar      1 <0>         0.3816
     20 O3          1.8471   -2.6820   -7.6000 O.3       1 <0>        -0.2706
     21 C16         2.1246   -3.7108   -8.5522 C.3       1 <0>         0.0609
     22 C17         1.0508   -3.7000   -9.6421 C.3       1 <0>        -0.1530
     23 C18        -2.2752    2.6598   -7.3842 C.3       1 <0>         0.5138
     24 F1         -3.2113    1.7030   -7.7912 F         1 <0>        -0.1747
     25 F2         -2.9046    3.9025   -7.2551 F         1 <0>        -0.1775
     26 F3         -1.2559    2.7502   -8.3380 F         1 <0>        -0.1754
     27 H1         -0.7458    2.7039    1.2583 H         1 <0>         0.0590
     28 H2         -1.7633    1.2435    1.2624 H         1 <0>         0.0589
     29 H3         -0.2161    1.2527    2.1423 H         1 <0>         0.0668
     30 H4         -0.0140    0.0212   -0.0004 H         1 <0>         0.0746
     31 H5          1.0035    1.4816   -0.0045 H         1 <0>         0.0747
     32 H6         -1.7796    1.2477   -1.2360 H         1 <0>         0.0675
     33 H7         -0.7622    2.7082   -1.2402 H         1 <0>         0.0678
     34 H8         -2.2226    2.6238   -2.7454 H         1 <0>         0.1450
     35 H9         -3.1686    3.2902   -4.9172 H         1 <0>         0.1418
     36 H10        -0.0903    1.1389   -6.9377 H         1 <0>         0.1613
     37 H11         1.7922    0.4185   -4.0507 H         1 <0>         0.4134
     38 H12         3.2666   -0.6951   -3.7714 H         1 <0>         0.1446
     39 H13         5.1828   -2.2686   -3.6767 H         1 <0>         0.1475
     40 H14         5.4492   -3.9605   -5.4400 H         1 <0>         0.1683
     41 H15         3.1014   -3.5350   -9.0028 H         1 <0>         0.0680
     42 H16         2.1243   -4.6790   -8.0515 H         1 <0>         0.0677
     43 H17         1.2625   -4.4847  -10.3684 H         1 <0>         0.0798
     44 H18         0.0740   -3.8758   -9.1916 H         1 <0>         0.0666
     45 H19         1.0511   -2.7318  -10.1428 H         1 <0>         0.0669
@<TRIPOS>BOND
     1    1    2 1
     2    1   27 1
     3    1   28 1
     4    1   29 1
     5    2    3 1
     6    2   30 1
     7    2   31 1
     8    3    4 1
     9    3   32 1
    10    3   33 1
    11    4    5 1
    12    5   10 ar
    13    5    6 ar
    14    6    7 ar
    15    6   34 1
    16    7    8 ar
    17    7   35 1
    18    8    9 ar
    19    8   23 1
    20    9   10 ar
    21    9   36 1
    22   10   11 1
    23   11   12 am
    24   11   37 1
    25   12   13 2
    26   12   14 1
    27   14   19 ar
    28   14   15 ar
    29   15   16 ar
    30   15   38 1
    31   16   17 ar
    32   16   39 1
    33   17   18 ar
    34   17   40 1
    35   18   19 ar
    36   19   20 1
    37   20   21 1
    38   21   22 1
    39   21   41 1
    40   21   42 1
    41   22   43 1
    42   22   44 1
    43   22   45 1
    44   23   24 1
    45   23   25 1
    46   23   26 1
@<TRIPOS>MOLECULE
ZINC13671427
   47    48     0     0     0
SMALL
USER_CHARGES
N-[(1S)-1-(3,4-diethoxyphenyl)ethyl]-4-fluoro-benzenesulfonamide
@<TRIPOS>ATOM
      1 C1         -0.9104   -1.9968   -9.6113 C.3       1 <0>        -0.1526
      2 C2         -0.5429   -2.4209   -8.1880 C.3       1 <0>         0.0530
      3 O1          0.5074   -1.5849   -7.6980 O.3       1 <0>        -0.3041
      4 C3          0.9550   -1.8305   -6.4376 C.ar      1 <0>         0.1059
      5 C4          0.3958   -2.8540   -5.6893 C.ar      1 <0>        -0.1693
      6 C5          0.8561   -3.1063   -4.4104 C.ar      1 <0>        -0.1049
      7 C6          1.8665   -2.3321   -3.8709 C.ar      1 <0>        -0.0905
      8 C7          2.4288   -1.3095   -4.6120 C.ar      1 <0>        -0.1643
      9 C8          1.9759   -1.0550   -5.8966 C.ar      1 <0>         0.1075
     10 O2          2.5276   -0.0491   -6.6269 O.3       1 <0>        -0.3031
     11 C9          3.5707    0.7058   -6.0072 C.3       1 <0>         0.0527
     12 C10         4.0633    1.7844   -6.9741 C.3       1 <0>        -0.1526
     13 C11         2.3603   -2.6075   -2.4740 C.3       1 <0>         0.1986
     14 H1          2.8764   -1.7272   -2.0908 H         1 <0>         0.0901
     15 C12         3.3260   -3.7941   -2.4991 C.3       1 <0>        -0.1696
     16 N1          1.2222   -2.9224   -1.6069 N.pl3     1 <0>        -1.1094
     17 S1          1.2305   -2.4413   -0.0223 S.o2      1 <0>         2.6950
     18 O3          2.4859   -2.8345    0.5149 O.2       1 <0>        -0.9479
     19 O4         -0.0045   -2.8662    0.5376 O.2       1 <0>        -0.9531
     20 C13         1.2082   -0.6795   -0.0127 C.ar      1 <0>        -0.6934
     21 C14         0.0021   -0.0041    0.0020 C.ar      1 <0>         0.0136
     22 C15        -0.0167    1.3778    0.0096 C.ar      1 <0>        -0.1739
     23 C16         1.1732    2.0858    0.0021 C.ar      1 <0>         0.1587
     24 C17         2.3806    1.4083   -0.0131 C.ar      1 <0>        -0.1745
     25 C18         2.3969    0.0264   -0.0202 C.ar      1 <0>         0.0056
     26 F1          1.1561    3.4366    0.0090 F         1 <0>        -0.1274
     27 H2         -1.2442   -0.9592   -9.6066 H         1 <0>         0.0667
     28 H3         -0.0373   -2.0946  -10.2564 H         1 <0>         0.0670
     29 H4         -1.7115   -2.6345   -9.9850 H         1 <0>         0.0792
     30 H5         -0.2091   -3.4585   -8.1927 H         1 <0>         0.0621
     31 H6         -1.4161   -2.3231   -7.5428 H         1 <0>         0.0617
     32 H7         -0.3964   -3.4576   -6.1070 H         1 <0>         0.1373
     33 H8          0.4227   -3.9073   -3.8300 H         1 <0>         0.1279
     34 H9          3.2207   -0.7088   -4.1897 H         1 <0>         0.1363
     35 H10         3.1894    1.1767   -5.1012 H         1 <0>         0.0605
     36 H11         4.3969    0.0422   -5.7517 H         1 <0>         0.0623
     37 H12         4.8590    2.3601   -6.5014 H         1 <0>         0.0791
     38 H13         4.4446    1.3134   -7.8802 H         1 <0>         0.0674
     39 H14         3.2372    2.4479   -7.2296 H         1 <0>         0.0667
     40 H15         4.1727   -3.5598   -3.1442 H         1 <0>         0.0716
     41 H16         3.6831   -3.9933   -1.4887 H         1 <0>         0.0777
     42 H17         2.8099   -4.6744   -2.8822 H         1 <0>         0.0668
     43 H18         0.4638   -3.4126   -1.9610 H         1 <0>         0.4203
     44 H19        -0.9259   -0.5565    0.0079 H         1 <0>         0.1515
     45 H20        -0.9591    1.9052    0.0169 H         1 <0>         0.1479
     46 H21         3.3093    1.9595   -0.0194 H         1 <0>         0.1480
     47 H22         3.3385   -0.5023   -0.0313 H         1 <0>         0.1516
@<TRIPOS>BOND
     1    1    2 1
     2    1   27 1
     3    1   28 1
     4    1   29 1
     5    2    3 1
     6    2   30 1
     7    2   31 1
     8    3    4 1
     9    4    9 ar
    10    4    5 ar
    11    5    6 ar
    12    5   32 1
    13    6    7 ar
    14    6   33 1
    15    7    8 ar
    16    7   13 1
    17    8    9 ar
    18    8   34 1
    19    9   10 1
    20   10   11 1
    21   11   12 1
    22   11   35 1
    23   11   36 1
    24   12   37 1
    25   12   38 1
    26   12   39 1
    27   13   14 1
    28   13   15 1
    29   13   16 1
    30   15   40 1
    31   15   41 1
    32   15   42 1
    33   16   17 1
    34   16   43 1
    35   17   18 2
    36   17   19 2
    37   17   20 1
    38   20   25 ar
    39   20   21 ar
    40   21   22 ar
    41   21   44 1
    42   22   23 ar
    43   22   45 1
    44   23   24 ar
    45   23   26 1
    46   24   25 ar
    47   24   46 1
    48   25   47 1
@<TRIPOS>MOLECULE
ZINC36540174
   64    64     0     0     0
SMALL
USER_CHARGES

@<TRIPOS>ATOM
      1 C1         -0.9619   -3.3161   -1.5853 C.3       1 <0>        -0.1379
      2 C2         -1.5889   -1.9781   -1.1884 C.3       1 <0>        -0.1406
      3 C3         -2.9211   -2.2237   -0.5281 C.2       1 <0>         0.5159
      4 O1         -3.3289   -3.3574   -0.3886 O.2       1 <0>        -0.5414
      5 N1         -3.6593   -1.1836   -0.0925 N.am      1 <0>        -0.5918
      6 C4         -3.1213    0.1772   -0.1636 C.3       1 <0>         0.0753
      7 C5         -4.9997   -1.4139    0.4521 C.3       1 <0>         0.1720
      8 H1         -5.2624   -2.4656    0.3381 H         1 <0>         0.1200
      9 C6         -5.9970   -0.5635   -0.2917 C.ar      1 <0>        -0.1620
     10 C7         -5.9094    0.8152   -0.2305 C.ar      1 <0>        -0.0536
     11 C8         -6.8218    1.5975   -0.9109 C.ar      1 <0>        -0.1968
     12 C9         -7.8282    0.9979   -1.6574 C.ar      1 <0>         0.2274
     13 C10        -7.9132   -0.3873   -1.7167 C.ar      1 <0>        -0.1990
     14 C11        -6.9942   -1.1637   -1.0385 C.ar      1 <0>        -0.0478
     15 N2         -8.7528    1.7861   -2.3464 N.pl3     1 <0>        -0.6361
     16 C12        -8.5945    3.2422   -2.3780 C.3       1 <0>         0.0909
     17 C13        -9.8809    1.1567   -3.0374 C.3       1 <0>         0.0872
     18 C14        -5.0179   -1.0471    1.9137 C.2       1 <0>         0.5116
     19 O2         -4.1642   -0.3137    2.3655 O.2       1 <0>        -0.5268
     20 N3         -5.9829   -1.5341    2.7187 N.am      1 <0>        -0.7156
     21 C15        -6.0006   -1.1776    4.1395 C.3       1 <0>         0.1758
     22 C16        -4.8774   -1.9205    4.8658 C.3       1 <0>        -0.1593
     23 C17        -5.7943    0.3311    4.2893 C.3       1 <0>        -0.1734
     24 C18        -7.3485   -1.5708    4.7473 C.3       1 <0>        -0.1163
     25 C19        -8.4705   -1.2261    3.7658 C.3       1 <0>        -0.0675
     26 C20        -8.6795   -2.3938    2.7996 C.3       1 <0>        -0.1530
     27 C21        -9.7642   -0.9674    4.5406 C.3       1 <0>        -0.1405
     28 C22        -8.0897    0.0277    2.9759 C.3       1 <0>        -0.1714
     29 H2          0.0016   -3.1384   -2.0629 H         1 <0>         0.0621
     30 H3         -0.8187   -3.9285   -0.6950 H         1 <0>         0.0612
     31 H4         -1.6220   -3.8346   -2.2806 H         1 <0>         0.0614
     32 H5         -0.9288   -1.4595   -0.4930 H         1 <0>         0.0944
     33 H6         -1.7321   -1.3656   -2.0786 H         1 <0>         0.0943
     34 H7         -3.3284    0.5987   -1.1473 H         1 <0>         0.0544
     35 H8         -3.5912    0.7941    0.6023 H         1 <0>         0.0922
     36 H9         -2.0442    0.1511    0.0011 H         1 <0>         0.0704
     37 H10        -5.1269    1.2807    0.3504 H         1 <0>         0.1287
     38 H11        -6.7530    2.6742   -0.8624 H         1 <0>         0.1244
     39 H12        -8.6947   -0.8567   -2.2959 H         1 <0>         0.1264
     40 H13        -7.0571   -2.2407   -1.0877 H         1 <0>         0.1230
     41 H14        -7.9879    3.5231   -3.2390 H         1 <0>         0.0500
     42 H15        -9.5747    3.7126   -2.4552 H         1 <0>         0.0675
     43 H16        -8.1031    3.5742   -1.4635 H         1 <0>         0.0699
     44 H17        -9.8549    0.0800   -2.8695 H         1 <0>         0.0787
     45 H18       -10.8158    1.5623   -2.6508 H         1 <0>         0.0565
     46 H19        -9.8112    1.3595   -4.1061 H         1 <0>         0.0545
     47 H20        -6.6657   -2.1207    2.3573 H         1 <0>         0.4028
     48 H21        -3.9130   -1.5727    4.4957 H         1 <0>         0.0665
     49 H22        -4.9469   -1.7273    5.9363 H         1 <0>         0.0643
     50 H23        -4.9722   -2.9909    4.6829 H         1 <0>         0.0547
     51 H24        -6.3389    0.8522    3.5020 H         1 <0>         0.0797
     52 H25        -6.1650    0.6536    5.2623 H         1 <0>         0.0547
     53 H26        -4.7320    0.5621    4.2104 H         1 <0>         0.0750
     54 H27        -7.3578   -2.6421    4.9481 H         1 <0>         0.0699
     55 H28        -7.5001   -1.0253    5.6787 H         1 <0>         0.0800
     56 H29        -8.4452   -3.3304    3.3055 H         1 <0>         0.0602
     57 H30        -9.7177   -2.4097    2.4681 H         1 <0>         0.0631
     58 H31        -8.0244   -2.2731    1.9368 H         1 <0>         0.0564
     59 H32        -9.6153   -0.1355    5.2290 H         1 <0>         0.0548
     60 H33       -10.5635   -0.7218    3.8414 H         1 <0>         0.0549
     61 H34       -10.0354   -1.8606    5.1034 H         1 <0>         0.0546
     62 H35        -7.2189   -0.1842    2.3556 H         1 <0>         0.0852
     63 H36        -8.9245    0.3245    2.3410 H         1 <0>         0.0445
     64 H37        -7.8546    0.8359    3.6684 H         1 <0>         0.0636
@<TRIPOS>BOND
     1    1    2 1
     2    1   29 1
     3    1   30 1
     4    1   31 1
     5    2    3 1
     6    2   32 1
     7    2   33 1
     8    3    4 2
     9    3    5 am
    10    5    6 1
    11    5    7 1
    12    6   34 1
    13    6   35 1
    14    6   36 1
    15    7    8 1
    16    7    9 1
    17    7   18 1
    18    9   14 ar
    19    9   10 ar
    20   10   11 ar
    21   10   37 1
    22   11   12 ar
    23   11   38 1
    24   12   13 ar
    25   12   15 1
    26   13   14 ar
    27   13   39 1
    28   14   40 1
    29   15   16 1
    30   15   17 1
    31   16   41 1
    32   16   42 1
    33   16   43 1
    34   17   44 1
    35   17   45 1
    36   17   46 1
    37   18   19 2
    38   18   20 am
    39   20   21 1
    40   20   47 1
    41   21   22 1
    42   21   23 1
    43   21   24 1
    44   22   48 1
    45   22   49 1
    46   22   50 1
    47   23   51 1
    48   23   52 1
    49   23   53 1
    50   24   25 1
    51   24   54 1
    52   24   55 1
    53   25   26 1
    54   25   27 1
    55   25   28 1
    56   26   56 1
    57   26   57 1
    58   26   58 1
    59   27   59 1
    60   27   60 1
    61   27   61 1
    62   28   62 1
    63   28   63 1
    64   28   64 1
@<TRIPOS>MOLECULE
ZINC22884375
   49    50     0     0     0
SMALL
USER_CHARGES

@<TRIPOS>ATOM
      1 C1         -0.0187    1.5258    0.0104 C.3       1 <0>        -0.1483
      2 C2          0.0021   -0.0041    0.0020 C.3       1 <0>        -0.0365
      3 C3          0.7074   -0.4901   -1.2379 C.2       1 <0>         0.0663
      4 N1          1.9810   -0.7482   -1.4011 N.2       1 <0>        -0.5130
      5 C4          2.4526   -1.1707   -2.5572 C.2       1 <0>         0.0545
      6 C5          1.5584   -1.3251   -3.5670 C.2       1 <0>        -0.2065
      7 S1          0.0485   -0.8398   -2.7466 S.3       1 <0>         0.1115
      8 C6          3.9174   -1.4683   -2.7493 C.3       1 <0>         0.1428
      9 O1          4.1426   -1.9053   -4.0911 O.3       1 <0>        -0.3374
     10 C7          5.4050   -2.2129   -4.4279 C.2       1 <0>         0.4700
     11 O2          6.2895   -2.1144   -3.6107 O.2       1 <0>        -0.4958
     12 C8          5.7192   -2.6811   -5.8255 C.3       1 <0>         0.1619
     13 H1          5.4370   -1.9076   -6.5398 H         1 <0>         0.1307
     14 C9          4.9350   -3.9607   -6.1230 C.3       1 <0>        -0.1005
     15 C10         5.2371   -5.0058   -5.0472 C.3       1 <0>        -0.1536
     16 C11         3.4366   -3.6513   -6.1271 C.3       1 <0>        -0.1598
     17 N2          7.1547   -2.9505   -5.9391 N.am      1 <0>        -0.7149
     18 C12         7.7591   -2.8873   -7.1421 C.2       1 <0>         0.5690
     19 O3          7.1131   -2.6067   -8.1328 O.2       1 <0>        -0.5297
     20 C13         9.2078   -3.1592   -7.2568 C.ar      1 <0>        -0.1452
     21 C14         9.9513   -3.4873   -6.1220 C.ar      1 <0>        -0.0790
     22 C15        11.3027   -3.7404   -6.2360 C.ar      1 <0>        -0.1287
     23 C16        11.9212   -3.6690   -7.4716 C.ar      1 <0>        -0.0549
     24 C17        11.1900   -3.3438   -8.6003 C.ar      1 <0>        -0.1296
     25 C18         9.8367   -3.0945   -8.5011 C.ar      1 <0>        -0.0515
     26 C19        13.3978   -3.9462   -7.5885 C.3       1 <0>        -0.1223
     27 H2          1.0039    1.9031    0.0027 H         1 <0>         0.0622
     28 H3         -0.5459    1.8868   -0.8726 H         1 <0>         0.0592
     29 H4         -0.5289    1.8773    0.9072 H         1 <0>         0.0723
     30 H5          0.5293   -0.3651    0.8851 H         1 <0>         0.0986
     31 H6         -1.0205   -0.3814    0.0098 H         1 <0>         0.0929
     32 H7          1.7161   -1.6538   -4.5836 H         1 <0>         0.2023
     33 H8          4.4994   -0.5668   -2.5582 H         1 <0>         0.0903
     34 H9          4.2229   -2.2519   -2.0559 H         1 <0>         0.0905
     35 H10         5.2286   -4.3482   -7.0986 H         1 <0>         0.0959
     36 H11         4.9435   -4.6183   -4.0716 H         1 <0>         0.0518
     37 H12         4.6784   -5.9174   -5.2592 H         1 <0>         0.0677
     38 H13         6.3045   -5.2262   -5.0443 H         1 <0>         0.0586
     39 H14         3.1430   -3.2638   -5.1515 H         1 <0>         0.0758
     40 H15         3.2214   -2.9068   -6.8935 H         1 <0>         0.0627
     41 H16         2.8779   -4.5629   -6.3390 H         1 <0>         0.0648
     42 H17         7.6702   -3.1745   -5.1485 H         1 <0>         0.4103
     43 H18         9.4699   -3.5427   -5.1569 H         1 <0>         0.1264
     44 H19        11.8792   -3.9944   -5.3588 H         1 <0>         0.1303
     45 H20        11.6788   -3.2894   -9.5618 H         1 <0>         0.1316
     46 H21         9.2662   -2.8456   -9.3836 H         1 <0>         0.1379
     47 H22        13.5545   -5.0088   -7.7740 H         1 <0>         0.0767
     48 H23        13.8117   -3.3682   -8.4148 H         1 <0>         0.0711
     49 H24        13.8954   -3.6620   -6.6612 H         1 <0>         0.0707
@<TRIPOS>BOND
     1    1    2 1
     2    1   27 1
     3    1   28 1
     4    1   29 1
     5    2    3 1
     6    2   30 1
     7    2   31 1
     8    3    7 1
     9    3    4 2
    10    4    5 1
    11    5    6 2
    12    5    8 1
    13    6    7 1
    14    6   32 1
    15    8    9 1
    16    8   33 1
    17    8   34 1
    18    9   10 1
    19   10   11 2
    20   10   12 1
    21   12   13 1
    22   12   14 1
    23   12   17 1
    24   14   15 1
    25   14   16 1
    26   14   35 1
    27   15   36 1
    28   15   37 1
    29   15   38 1
    30   16   39 1
    31   16   40 1
    32   16   41 1
    33   17   18 am
    34   17   42 1
    35   18   19 2
    36   18   20 1
    37   20   25 ar
    38   20   21 ar
    39   21   22 ar
    40   21   43 1
    41   22   23 ar
    42   22   44 1
    43   23   24 ar
    44   23   26 1
    45   24   25 ar
    46   24   45 1
    47   25   46 1
    48   26   47 1
    49   26   48 1
    50   26   49 1
@<TRIPOS>MOLECULE
ZINC66748099
   49    51     0     0     0
SMALL
USER_CHARGES

@<TRIPOS>ATOM
      1 C1         -0.0178    1.4608    0.0101 C.3       1 <0>         0.0859
      2 N1          0.0021   -0.0041    0.0020 N.am      1 <0>        -0.7312
      3 C2          0.5851   -0.6645   -1.0180 C.2       1 <0>         0.5558
      4 O1          1.0944   -0.0447   -1.9312 O.2       1 <0>        -0.5317
      5 C3          0.6051   -2.1428   -1.0261 C.ar      1 <0>        -0.1263
      6 C4          0.0161   -2.8575    0.0181 C.ar      1 <0>        -0.0860
      7 C5          0.0379   -4.2369    0.0042 C.ar      1 <0>        -0.1039
      8 C6          0.6422   -4.9117   -1.0416 C.ar      1 <0>        -0.0555
      9 C7          1.2283   -4.2093   -2.0795 C.ar      1 <0>        -0.1031
     10 C8          1.2081   -2.8298   -2.0809 C.ar      1 <0>        -0.0577
     11 C9          0.6627   -6.4186   -1.0499 C.3       1 <0>        -0.0628
     12 S1         -0.8142   -7.0386   -1.9014 S.3       1 <0>         0.0037
     13 C10        -0.6445   -8.7909   -1.8278 C.2       1 <0>         0.1551
     14 N2          0.3388   -9.4571   -1.2685 N.2       1 <0>        -0.2909
     15 N3          0.1409  -10.7202   -1.4005 N.2       1 <0>        -0.2778
     16 C11        -0.9705  -10.9338   -2.0461 C.2       1 <0>         0.1987
     17 N4         -1.5138   -9.7128   -2.3364 N.pl3     1 <0>        -0.4528
     18 C12        -2.7667   -9.4487   -3.0483 C.3       1 <0>         0.1307
     19 C13        -2.4918   -9.3425   -4.5262 C.2       1 <0>        -0.1872
     20 C14        -3.1450  -10.1022   -5.3702 C.2       1 <0>        -0.1522
     21 C15        -1.5527  -12.2776   -2.4015 C.3       1 <0>         0.0070
     22 C16        -2.4584  -12.7424   -1.2904 C.ar      1 <0>        -0.0887
     23 C17        -1.9455  -13.4925   -0.2486 C.ar      1 <0>        -0.0988
     24 C18        -2.7763  -13.9188    0.7706 C.ar      1 <0>        -0.1163
     25 C19        -4.1199  -13.5947    0.7484 C.ar      1 <0>        -0.1159
     26 C20        -4.6327  -12.8439   -0.2929 C.ar      1 <0>        -0.1185
     27 C21        -3.8010  -12.4139   -1.3099 C.ar      1 <0>        -0.1169
     28 H1          1.0048    1.8381    0.0023 H         1 <0>         0.0628
     29 H2         -0.5450    1.8219   -0.8730 H         1 <0>         0.0627
     30 H3         -0.5280    1.8123    0.9069 H         1 <0>         0.0783
     31 H4         -0.4044   -0.4986    0.7308 H         1 <0>         0.4020
     32 H5         -0.4553   -2.3319    0.8353 H         1 <0>         0.1302
     33 H6         -0.4175   -4.7911    0.8116 H         1 <0>         0.1349
     34 H7          1.6988   -4.7420   -2.8927 H         1 <0>         0.1362
     35 H8          1.6616   -2.2827   -2.8941 H         1 <0>         0.1414
     36 H9          1.5550   -6.7670   -1.5698 H         1 <0>         0.1097
     37 H10         0.6724   -6.7874   -0.0242 H         1 <0>         0.1091
     38 H11        -3.4666  -10.2643   -2.8667 H         1 <0>         0.1037
     39 H12        -3.1976   -8.5136   -2.6908 H         1 <0>         0.1077
     40 H13        -1.7563   -8.6400   -4.8896 H         1 <0>         0.1212
     41 H14        -3.8805  -10.8046   -5.0069 H         1 <0>         0.1027
     42 H15        -2.9480  -10.0260   -6.4294 H         1 <0>         0.1110
     43 H16        -2.1250  -12.1928   -3.3253 H         1 <0>         0.0935
     44 H17        -0.7464  -12.9982   -2.5385 H         1 <0>         0.1126
     45 H18        -0.8957  -13.7457   -0.2313 H         1 <0>         0.1281
     46 H19        -2.3757  -14.5055    1.5841 H         1 <0>         0.1255
     47 H20        -4.7691  -13.9285    1.5443 H         1 <0>         0.1238
     48 H21        -5.6825  -12.5910   -0.3104 H         1 <0>         0.1239
     49 H22        -4.2009  -11.8241   -2.1215 H         1 <0>         0.1167
@<TRIPOS>BOND
     1    1    2 1
     2    1   28 1
     3    1   29 1
     4    1   30 1
     5    2    3 am
     6    2   31 1
     7    3    4 2
     8    3    5 1
     9    5   10 ar
    10    5    6 ar
    11    6    7 ar
    12    6   32 1
    13    7    8 ar
    14    7   33 1
    15    8    9 ar
    16    8   11 1
    17    9   10 ar
    18    9   34 1
    19   10   35 1
    20   11   12 1
    21   11   36 1
    22   11   37 1
    23   12   13 1
    24   13   17 1
    25   13   14 2
    26   14   15 1
    27   15   16 2
    28   16   17 1
    29   16   21 1
    30   17   18 1
    31   18   19 1
    32   18   38 1
    33   18   39 1
    34   19   20 2
    35   19   40 1
    36   20   41 1
    37   20   42 1
    38   21   22 1
    39   21   43 1
    40   21   44 1
    41   22   27 ar
    42   22   23 ar
    43   23   24 ar
    44   23   45 1
    45   24   25 ar
    46   24   46 1
    47   25   26 ar
    48   25   47 1
    49   26   27 ar
    50   26   48 1
    51   27   49 1
@<TRIPOS>MOLECULE
ZINC02251101
   57    62     0     0     0
SMALL
USER_CHARGES
methyl-(p-tolylmethyl)-[3-(trifluoromethyl)phenyl]-BLAHone
@<TRIPOS>ATOM
      1 C1         -7.6912    9.6200    1.8888 C.3       1 <0>        -0.1196
      2 C2         -6.2600    9.4402    2.3254 C.ar      1 <0>        -0.0717
      3 C3         -5.9409    8.4838    3.2711 C.ar      1 <0>        -0.1251
      4 C4         -4.6280    8.3186    3.6712 C.ar      1 <0>        -0.1021
      5 C5         -3.6343    9.1094    3.1253 C.ar      1 <0>        -0.1286
      6 C6         -3.9542   10.0693    2.1834 C.ar      1 <0>        -0.0816
      7 C7         -5.2665   10.2319    1.7804 C.ar      1 <0>        -0.1227
      8 C8         -2.2031    8.9292    3.5614 C.3       1 <0>         0.1295
      9 N1         -1.5506    7.9408    2.6992 N.am      1 <0>        -0.5238
     10 C9         -1.5190    6.6381    3.0683 C.2       1 <0>         0.4481
     11 N2         -0.9511    5.7190    2.3380 N.2       1 <0>        -0.5362
     12 C10        -0.3660    6.0175    1.1671 C.2       1 <0>         0.4227
     13 C11        -0.3619    7.3484    0.7348 C.2       1 <0>        -0.2847
     14 C12        -0.9808    8.3311    1.5368 C.2       1 <0>         0.5687
     15 O1         -1.0015    9.4999    1.1907 O.2       1 <0>        -0.4982
     16 C13         0.3430    7.3741   -0.5536 C.ar      1 <0>         0.1618
     17 C14         0.7289    6.0317   -0.8148 C.ar      1 <0>         0.3000
     18 N3          0.2902    5.2501    0.2375 N.pl3     1 <0>        -0.4182
     19 C15         0.4833    3.8664    0.3383 C.ar      1 <0>         0.1199
     20 C16        -0.6082    3.0080    0.3147 C.ar      1 <0>        -0.0622
     21 C17        -0.4141    1.6440    0.4084 C.ar      1 <0>        -0.1044
     22 C18         0.8647    1.1333    0.5377 C.ar      1 <0>        -0.0577
     23 C19         1.9533    1.9853    0.5620 C.ar      1 <0>        -0.1710
     24 C20         1.7662    3.3503    0.4624 C.ar      1 <0>        -0.0455
     25 C21         3.3454    1.4242    0.6967 C.3       1 <0>         0.5111
     26 F1          3.2800    0.0292    0.7797 F         1 <0>        -0.1731
     27 F2          4.1056    1.7898   -0.4193 F         1 <0>        -0.1722
     28 F3          3.9431    1.9327    1.8549 F         1 <0>        -0.1739
     29 N4          1.3887    5.7391   -1.9184 N.ar      1 <0>        -0.4329
     30 C22         1.6939    6.7065   -2.7904 C.ar      1 <0>         0.1154
     31 C23         2.3974    6.4141   -3.9724 C.ar      1 <0>        -0.0884
     32 C24         2.6975    7.4140   -4.8451 C.ar      1 <0>        -0.0897
     33 C25         2.3178    8.7303   -4.5867 C.ar      1 <0>        -0.1003
     34 C26         1.6362    9.0521   -3.4541 C.ar      1 <0>        -0.0763
     35 C27         1.3076    8.0457   -2.5276 C.ar      1 <0>         0.0854
     36 N5          0.6389    8.3370   -1.4075 N.ar      1 <0>        -0.3834
     37 C28        -2.1629    6.2362    4.3702 C.3       1 <0>        -0.1222
     38 H1         -8.1772   10.3549    2.5305 H         1 <0>         0.0741
     39 H2         -7.7151    9.9672    0.8559 H         1 <0>         0.0680
     40 H3         -8.2164    8.6679    1.9644 H         1 <0>         0.0681
     41 H4         -6.7171    7.8655    3.6971 H         1 <0>         0.1256
     42 H5         -4.3787    7.5714    4.4101 H         1 <0>         0.1255
     43 H6         -3.1785   10.6901    1.7601 H         1 <0>         0.1326
     44 H7         -5.5159   10.9793    1.0418 H         1 <0>         0.1249
     45 H8         -2.1790    8.5824    4.5945 H         1 <0>         0.1124
     46 H9         -1.6775    9.8811    3.4853 H         1 <0>         0.1136
     47 H10        -1.6073    3.4065    0.2178 H         1 <0>         0.1381
     48 H11        -1.2621    0.9756    0.3853 H         1 <0>         0.1485
     49 H12         1.0135    0.0664    0.6154 H         1 <0>         0.1486
     50 H13         2.6169    4.0153    0.4814 H         1 <0>         0.1376
     51 H14         2.6988    5.3994   -4.1866 H         1 <0>         0.1417
     52 H15         3.2383    7.1846   -5.7513 H         1 <0>         0.1392
     53 H16         2.5686    9.5056   -5.2955 H         1 <0>         0.1391
     54 H17         1.3487   10.0762   -3.2668 H         1 <0>         0.1432
     55 H18        -3.2288    6.0714    4.2127 H         1 <0>         0.1091
     56 H19        -1.7032    5.3175    4.7346 H         1 <0>         0.1124
     57 H20        -2.0225    7.0290    5.1049 H         1 <0>         0.1008
@<TRIPOS>BOND
     1    1    2 1
     2    1   38 1
     3    1   39 1
     4    1   40 1
     5    2    7 ar
     6    2    3 ar
     7    3    4 ar
     8    3   41 1
     9    4    5 ar
    10    4   42 1
    11    5    6 ar
    12    5    8 1
    13    6    7 ar
    14    6   43 1
    15    7   44 1
    16    8    9 1
    17    8   45 1
    18    8   46 1
    19    9   14 am
    20    9   10 1
    21   10   11 2
    22   10   37 1
    23   11   12 1
    24   12   18 1
    25   12   13 2
    26   13   14 1
    27   13   16 1
    28   14   15 2
    29   16   36 ar
    30   16   17 ar
    31   17   18 1
    32   17   29 ar
    33   18   19 1
    34   19   24 ar
    35   19   20 ar
    36   20   21 ar
    37   20   47 1
    38   21   22 ar
    39   21   48 1
    40   22   23 ar
    41   22   49 1
    42   23   24 ar
    43   23   25 1
    44   24   50 1
    45   25   26 1
    46   25   27 1
    47   25   28 1
    48   29   30 ar
    49   30   35 ar
    50   30   31 ar
    51   31   32 ar
    52   31   51 1
    53   32   33 ar
    54   32   52 1
    55   33   34 ar
    56   33   53 1
    57   34   35 ar
    58   34   54 1
    59   35   36 ar
    60   37   55 1
    61   37   56 1
    62   37   57 1
@<TRIPOS>MOLECULE
ZINC13656338
   49    53     0     0     0
SMALL
USER_CHARGES
[(2Z)-2-[(6-bromo-4H-1,3-benzodioxin-8-yl)methylene]-3-oxo-benzofuran-6-yl] 2-methylbenzoate
@<TRIPOS>ATOM
      1 C1         -3.2687    3.5819    5.7711 C.3       1 <0>        -0.1279
      2 C2         -3.9973    4.4627    4.7891 C.ar      1 <0>        -0.0123
      3 C3         -5.1956    5.0482    5.1423 C.ar      1 <0>        -0.1346
      4 C4         -5.8661    5.8567    4.2418 C.ar      1 <0>        -0.0730
      5 C5         -5.3409    6.0836    2.9816 C.ar      1 <0>        -0.1398
      6 C6         -4.1411    5.5092    2.6174 C.ar      1 <0>        -0.0560
      7 C7         -3.4616    4.6877    3.5196 C.ar      1 <0>        -0.1345
      8 C8         -2.1789    4.0646    3.1346 C.2       1 <0>         0.5093
      9 O1         -1.5371    3.4391    3.9547 O.2       1 <0>        -0.4744
     10 O2         -1.7206    4.1901    1.8736 O.3       1 <0>        -0.2877
     11 C9         -0.4894    3.6810    1.6117 C.ar      1 <0>         0.1600
     12 C10         0.6049    4.5365    1.5160 C.ar      1 <0>        -0.1538
     13 C11         1.8478    4.0341    1.2523 C.ar      1 <0>         0.0073
     14 C12         2.0201    2.6603    1.0792 C.ar      1 <0>        -0.2588
     15 C13         0.9245    1.7877    1.1739 C.ar      1 <0>         0.1557
     16 C14        -0.3322    2.3147    1.4473 C.ar      1 <0>        -0.1387
     17 O3          1.3354    0.5171    0.9715 O.3       1 <0>        -0.2096
     18 C15         2.6674    0.4498    0.7387 C.2       1 <0>        -0.0435
     19 C16         3.3839   -0.6786    0.4986 C.2       1 <0>         0.0009
     20 C17         2.7283   -1.9900    0.5557 C.ar      1 <0>        -0.0997
     21 C18         1.3331   -2.0836    0.4841 C.ar      1 <0>        -0.0279
     22 C19         0.7261   -3.3198    0.5324 C.ar      1 <0>        -0.1249
     23 C20         1.4895   -4.4693    0.6650 C.ar      1 <0>        -0.0279
     24 C21         2.8678   -4.3916    0.7436 C.ar      1 <0>        -0.2031
     25 C22         3.4967   -3.1595    0.6882 C.ar      1 <0>         0.1796
     26 O4          4.8493   -3.0692    0.7569 O.3       1 <0>        -0.3204
     27 C23         5.5501   -4.2161    1.2465 C.3       1 <0>         0.2202
     28 O5          5.0463   -5.3789    0.5782 O.3       1 <0>        -0.3795
     29 C24         3.6778   -5.6552    0.8912 C.3       1 <0>         0.1027
     30 Br1        -1.1575   -3.4480    0.4257 Br        1 <0>        -0.0360
     31 C25         3.1970    1.8197    0.7919 C.2       1 <0>         0.4185
     32 O6          4.3507    2.1802    0.6343 O.2       1 <0>        -0.4116
     33 H1         -2.4917    4.1604    6.2710 H         1 <0>         0.0804
     34 H2         -3.9731    3.2034    6.5118 H         1 <0>         0.0660
     35 H3         -2.8142    2.7450    5.2409 H         1 <0>         0.0918
     36 H4         -5.6110    4.8753    6.1241 H         1 <0>         0.1352
     37 H5         -6.8038    6.3125    4.5234 H         1 <0>         0.1325
     38 H6         -5.8695    6.7158    2.2835 H         1 <0>         0.1343
     39 H7         -3.7301    5.6907    1.6353 H         1 <0>         0.1400
     40 H8          0.4710    5.5997    1.6500 H         1 <0>         0.1483
     41 H9          2.6954    4.6991    1.1777 H         1 <0>         0.1482
     42 H10        -1.1866    1.6592    1.5289 H         1 <0>         0.1469
     43 H11         4.4363   -0.6107    0.2658 H         1 <0>         0.1734
     44 H12         0.7347   -1.1898    0.3867 H         1 <0>         0.1589
     45 H13         1.0039   -5.4330    0.7070 H         1 <0>         0.1440
     46 H14         6.6153   -4.1090    1.0417 H         1 <0>         0.1502
     47 H15         5.3917   -4.3107    2.3208 H         1 <0>         0.0705
     48 H16         3.2948   -6.4146    0.2094 H         1 <0>         0.1209
     49 H17         3.6050   -6.0171    1.9168 H         1 <0>         0.0797
@<TRIPOS>BOND
     1    1    2 1
     2    1   33 1
     3    1   34 1
     4    1   35 1
     5    2    7 ar
     6    2    3 ar
     7    3    4 ar
     8    3   36 1
     9    4    5 ar
    10    4   37 1
    11    5    6 ar
    12    5   38 1
    13    6    7 ar
    14    6   39 1
    15    7    8 1
    16    8    9 2
    17    8   10 1
    18   10   11 1
    19   11   16 ar
    20   11   12 ar
    21   12   13 ar
    22   12   40 1
    23   13   14 ar
    24   13   41 1
    25   14   31 1
    26   14   15 ar
    27   15   16 ar
    28   15   17 1
    29   16   42 1
    30   17   18 1
    31   18   19 2
    32   18   31 1
    33   19   20 1
    34   19   43 1
    35   20   25 ar
    36   20   21 ar
    37   21   22 ar
    38   21   44 1
    39   22   23 ar
    40   22   30 1
    41   23   24 ar
    42   23   45 1
    43   24   29 1
    44   24   25 ar
    45   25   26 1
    46   26   27 1
    47   27   28 1
    48   27   46 1
    49   27   47 1
    50   28   29 1
    51   29   48 1
    52   29   49 1
    53   31   32 2
@<TRIPOS>MOLECULE
ZINC34773760
   56    61     0     0     0
SMALL
USER_CHARGES

@<TRIPOS>ATOM
      1 C1          1.1796    0.9568    4.1671 C.3       1 <0>        -0.1202
      2 C2          1.0967   -0.5029    3.8021 C.ar      1 <0>        -0.0696
      3 C3          0.4349   -0.8914    2.6523 C.ar      1 <0>        -0.1214
      4 C4          0.3589   -2.2304    2.3175 C.ar      1 <0>        -0.0894
      5 C5          0.9451   -3.1809    3.1322 C.ar      1 <0>        -0.0945
      6 C6          1.6077   -2.7924    4.2815 C.ar      1 <0>        -0.0893
      7 C7          1.6874   -1.4530    4.6141 C.ar      1 <0>        -0.1213
      8 C8          0.8614   -4.6408    2.7677 C.3       1 <0>        -0.0551
      9 S1          2.2838   -5.0886    1.7348 S.3       1 <0>         0.0167
     10 C9          2.0434   -6.8013    1.3976 C.2       1 <0>         0.2097
     11 N1          1.0419   -7.5353    1.8176 N.2       1 <0>        -0.2737
     12 N2          1.2239   -8.8363    1.3328 N.2       1 <0>        -0.2914
     13 C10         2.3323   -8.8581    0.6306 C.2       1 <0>         0.4661
     14 N3          2.8673   -7.5967    0.6459 N.pl3     1 <0>        -0.4033
     15 C11         4.0418   -7.3312   -0.0263 C.2       1 <0>         0.0030
     16 C12         4.7161   -8.3176   -0.7380 C.2       1 <0>        -0.1989
     17 C13         5.9452   -7.8849   -1.3995 C.2       1 <0>        -0.0269
     18 C14         6.2577   -6.5835   -1.2261 C.2       1 <0>        -0.1963
     19 S2          4.9580   -5.9441   -0.2140 S.3       1 <0>         0.3132
     20 C15         7.4535   -5.8769   -1.7845 C.3       1 <0>         0.1386
     21 N4          8.4138   -6.8970   -2.2473 N.3       1 <0>        -0.5375
     22 C16         7.7473   -7.8991   -3.0906 C.3       1 <0>         0.0498
     23 C17         6.8407   -8.7895   -2.2344 C.3       1 <0>        -0.0529
     24 C18         9.5398   -6.2761   -2.9577 C.3       1 <0>         0.0240
     25 C19         4.1065   -9.6669   -0.7338 C.2       1 <0>         0.5836
     26 O1          4.6415  -10.5809   -1.3346 O.2       1 <0>        -0.4754
     27 N5          2.9656   -9.8811   -0.0578 N.am      1 <0>        -0.4649
     28 C20         2.3962  -11.1599   -0.0617 C.ar      1 <0>         0.1322
     29 C21         2.7398  -12.0776    0.9229 C.ar      1 <0>        -0.0836
     30 C22         2.1764  -13.3384    0.9172 C.ar      1 <0>        -0.0944
     31 C23         1.2710  -13.6886   -0.0676 C.ar      1 <0>        -0.0885
     32 C24         0.9265  -12.7772   -1.0504 C.ar      1 <0>        -0.0262
     33 C25         1.4826  -11.5115   -1.0462 C.ar      1 <0>        -0.0816
     34 Cl1        -0.2097  -13.2214   -2.2855 Cl        1 <0>        -0.0546
     35 H1          2.0723    1.3933    3.7192 H         1 <0>         0.0742
     36 H2          0.2958    1.4751    3.7950 H         1 <0>         0.0690
     37 H3          1.2305    1.0580    5.2512 H         1 <0>         0.0690
     38 H4         -0.0230   -0.1488    2.0158 H         1 <0>         0.1272
     39 H5         -0.1587   -2.5340    1.4196 H         1 <0>         0.1278
     40 H6          2.0654   -3.5351    4.9182 H         1 <0>         0.1280
     41 H7          2.2082   -1.1492    5.5101 H         1 <0>         0.1274
     42 H8          0.8681   -5.2431    3.6762 H         1 <0>         0.1107
     43 H9         -0.0605   -4.8253    2.2162 H         1 <0>         0.1106
     44 H10         7.1517   -5.2485   -2.6223 H         1 <0>         0.0647
     45 H11         7.9132   -5.2631   -1.0100 H         1 <0>         0.1025
     46 H12         7.1471   -7.3934   -3.8470 H         1 <0>         0.0430
     47 H13         8.4997   -8.5159   -3.5821 H         1 <0>         0.0888
     48 H14         7.4490   -9.4125   -1.5786 H         1 <0>         0.0948
     49 H15         6.2287   -9.4202   -2.8792 H         1 <0>         0.0944
     50 H16        10.0133   -5.5365   -2.3121 H         1 <0>         0.0742
     51 H17        10.2668   -7.0425   -3.2265 H         1 <0>         0.0764
     52 H18         9.1747   -5.7887   -3.8617 H         1 <0>         0.0311
     53 H19         3.4474  -11.8054    1.6921 H         1 <0>         0.1336
     54 H20         2.4435  -14.0519    1.6826 H         1 <0>         0.1461
     55 H21         0.8321  -14.6754   -0.0700 H         1 <0>         0.1443
     56 H22         1.2102  -10.7987   -1.8105 H         1 <0>         0.1362
@<TRIPOS>BOND
     1    1    2 1
     2    1   35 1
     3    1   36 1
     4    1   37 1
     5    2    7 ar
     6    2    3 ar
     7    3    4 ar
     8    3   38 1
     9    4    5 ar
    10    4   39 1
    11    5    6 ar
    12    5    8 1
    13    6    7 ar
    14    6   40 1
    15    7   41 1
    16    8    9 1
    17    8   42 1
    18    8   43 1
    19    9   10 1
    20   10   14 1
    21   10   11 2
    22   11   12 1
    23   12   13 2
    24   13   27 1
    25   13   14 1
    26   14   15 1
    27   15   19 1
    28   15   16 2
    29   16   17 1
    30   16   25 1
    31   17   23 1
    32   17   18 2
    33   18   19 1
    34   18   20 1
    35   20   21 1
    36   20   44 1
    37   20   45 1
    38   21   22 1
    39   21   24 1
    40   22   23 1
    41   22   46 1
    42   22   47 1
    43   23   48 1
    44   23   49 1
    45   24   50 1
    46   24   51 1
    47   24   52 1
    48   25   26 2
    49   25   27 am
    50   27   28 1
    51   28   33 ar
    52   28   29 ar
    53   29   30 ar
    54   29   53 1
    55   30   31 ar
    56   30   54 1
    57   31   32 ar
    58   31   55 1
    59   32   33 ar
    60   32   34 1
    61   33   56 1
@<TRIPOS>MOLECULE
ZINC40008296
   58    63     0     0     0
SMALL
USER_CHARGES

@<TRIPOS>ATOM
      1 C1         -0.0184    1.5028    0.0103 C.3       1 <0>        -0.1167
      2 C2          0.0021   -0.0041    0.0020 C.ar      1 <0>        -0.1046
      3 C3          0.0057   -0.6891   -1.2051 C.ar      1 <0>        -0.0531
      4 C4          0.0206   -2.0654   -1.2351 C.ar      1 <0>        -0.1272
      5 C5          0.0339   -2.7901   -0.0433 C.ar      1 <0>         0.1348
      6 C6          0.0365   -2.0862    1.1720 C.ar      1 <0>        -0.2046
      7 C7          0.0226   -0.6916    1.1835 C.ar      1 <0>        -0.0330
      8 C8          0.0666   -2.8486    2.4457 C.2       1 <0>         0.4593
      9 O1         -0.0977   -2.3318    3.5368 O.2       1 <0>        -0.4246
     10 C9          0.3123   -4.2831    2.2654 C.2       1 <0>        -0.2294
     11 C10         0.2923   -4.8504    1.0225 C.2       1 <0>         0.0929
     12 O2          0.0414   -4.1416   -0.0960 O.3       1 <0>        -0.1763
     13 C11         0.5803   -6.2873    1.1657 C.2       1 <0>         0.5767
     14 O3          0.6404   -7.0799    0.2469 O.2       1 <0>        -0.4445
     15 N1          0.7679   -6.5957    2.4652 N.am      1 <0>        -0.4962
     16 C12         0.6121   -5.3621    3.2534 C.3       1 <0>         0.2403
     17 H1         -0.2134   -5.4674    3.9573 H         1 <0>         0.1358
     18 C13         1.8891   -5.0517    3.9910 C.ar      1 <0>        -0.1337
     19 C14         3.1101   -5.3095    3.3957 C.ar      1 <0>        -0.0577
     20 C15         4.2821   -5.0262    4.0699 C.ar      1 <0>        -0.1482
     21 C16         4.2332   -4.4821    5.3452 C.ar      1 <0>         0.1455
     22 C17         3.0068   -4.2239    5.9401 C.ar      1 <0>        -0.2051
     23 C18         1.8377   -4.5042    5.2596 C.ar      1 <0>        -0.0353
     24 O4          5.3847   -4.2029    6.0107 O.3       1 <0>        -0.3094
     25 C19         5.2583   -3.6441    7.3198 C.3       1 <0>         0.0862
     26 C20         6.6291   -3.4032    7.8976 C.2       1 <0>        -0.1604
     27 C21         6.8947   -2.2731    8.5048 C.2       1 <0>        -0.1666
     28 C22         1.0561   -7.8517    2.9693 C.2       1 <0>         0.3774
     29 N2          1.2427   -8.2153    4.2171 N.2       1 <0>        -0.5138
     30 C23         1.5200   -9.4894    4.5680 C.ar      1 <0>         0.0938
     31 C24         1.7416  -10.0096    5.8644 C.ar      1 <0>        -0.0564
     32 C25         2.0144  -11.3398    6.0477 C.ar      1 <0>        -0.1071
     33 C26         2.0830  -12.2202    4.9774 C.ar      1 <0>        -0.0616
     34 C27         1.8716  -11.7461    3.6959 C.ar      1 <0>        -0.0640
     35 C28         1.5977  -10.4151    3.5024 C.ar      1 <0>        -0.1548
     36 S1          1.2611   -9.3932    2.0885 S.3       1 <0>         0.0757
     37 C29         2.3854  -13.6782    5.2094 C.3       1 <0>        -0.1147
     38 H2          1.0042    1.8801    0.0026 H         1 <0>         0.0767
     39 H3         -0.5455    1.8639   -0.8728 H         1 <0>         0.0731
     40 H4         -0.5286    1.8543    0.9071 H         1 <0>         0.0725
     41 H5         -0.0037   -0.1355   -2.1324 H         1 <0>         0.1452
     42 H6          0.0217   -2.5844   -2.1822 H         1 <0>         0.1500
     43 H7          0.0238   -0.1571    2.1220 H         1 <0>         0.1461
     44 H8          3.1476   -5.7331    2.4029 H         1 <0>         0.1176
     45 H9          5.2356   -5.2284    3.6048 H         1 <0>         0.1334
     46 H10         2.9661   -3.8004    6.9327 H         1 <0>         0.1330
     47 H11         0.8827   -4.2993    5.7205 H         1 <0>         0.1326
     48 H12         4.7177   -2.6994    7.2609 H         1 <0>         0.0695
     49 H13         4.7111   -4.3367    7.9592 H         1 <0>         0.0741
     50 H14         7.3926   -4.1621    7.8112 H         1 <0>         0.1206
     51 H15         6.1312   -1.5142    8.5912 H         1 <0>         0.1004
     52 H16         7.8770   -2.1005    8.9189 H         1 <0>         0.1096
     53 H17         1.6958   -9.3510    6.7192 H         1 <0>         0.1343
     54 H18         2.1801  -11.7114    7.0481 H         1 <0>         0.1356
     55 H19         1.9216  -12.4188    2.8524 H         1 <0>         0.1349
     56 H20         1.4535  -14.2231    5.3599 H         1 <0>         0.0771
     57 H21         2.9072  -14.0835    4.3424 H         1 <0>         0.0713
     58 H22         3.0143  -13.7827    6.0935 H         1 <0>         0.0729
@<TRIPOS>BOND
     1    1    2 1
     2    1   38 1
     3    1   39 1
     4    1   40 1
     5    2    7 ar
     6    2    3 ar
     7    3    4 ar
     8    3   41 1
     9    4    5 ar
    10    4   42 1
    11    5   12 1
    12    5    6 ar
    13    6    7 ar
    14    6    8 1
    15    7   43 1
    16    8    9 2
    17    8   10 1
    18   10   16 1
    19   10   11 2
    20   11   12 1
    21   11   13 1
    22   13   14 2
    23   13   15 am
    24   15   16 1
    25   15   28 1
    26   16   17 1
    27   16   18 1
    28   18   23 ar
    29   18   19 ar
    30   19   20 ar
    31   19   44 1
    32   20   21 ar
    33   20   45 1
    34   21   22 ar
    35   21   24 1
    36   22   23 ar
    37   22   46 1
    38   23   47 1
    39   24   25 1
    40   25   26 1
    41   25   48 1
    42   25   49 1
    43   26   27 2
    44   26   50 1
    45   27   51 1
    46   27   52 1
    47   28   36 1
    48   28   29 2
    49   29   30 1
    50   30   35 ar
    51   30   31 ar
    52   31   32 ar
    53   31   53 1
    54   32   33 ar
    55   32   54 1
    56   33   34 ar
    57   33   37 1
    58   34   35 ar
    59   34   55 1
    60   35   36 1
    61   37   56 1
    62   37   57 1
    63   37   58 1
@<TRIPOS>MOLECULE
ZINC59534606
   60    64     0     0     0
SMALL
USER_CHARGES

@<TRIPOS>ATOM
      1 C1          3.3501    0.8717    1.0539 C.3       1 <0>        -0.1510
      2 C2          2.8960   -0.5792    0.8816 C.3       1 <0>         0.0641
      3 O1          2.8985   -0.9175   -0.5068 O.3       1 <0>        -0.3469
      4 C3          2.5198   -2.1730   -0.8330 C.2       1 <0>         0.5265
      5 O2          2.1962   -2.9583    0.0409 O.2       1 <0>        -0.4935
      6 C4          2.4992   -2.5715   -2.1747 C.2       1 <0>        -0.2731
      7 C5          1.9988   -3.8140   -2.5467 C.2       1 <0>         0.2988
      8 N1          1.9881   -4.1739   -3.8328 N.2       1 <0>        -0.5143
      9 C6          2.4241   -3.4328   -4.8178 C.2       1 <0>         0.4139
     10 N2          2.9569   -2.1734   -4.6648 N.am      1 <0>        -0.5807
     11 C7          3.3703   -1.5149   -5.7561 C.2       1 <0>         0.5460
     12 O3          3.8487   -0.3985   -5.6700 O.2       1 <0>        -0.4395
     13 C8          3.2306   -2.1769   -7.0567 C.2       1 <0>        -0.2585
     14 C9          3.5687   -1.7286   -8.2952 C.2       1 <0>         0.1441
     15 C10         4.0017   -0.3398   -8.4794 C.2       1 <0>        -0.1957
     16 C11         3.4524    0.8519   -7.8213 C.2       1 <0>        -0.1133
     17 C12         4.1498    1.9021   -8.2874 C.2       1 <0>         0.0044
     18 N3          5.0842    1.4607   -9.1783 N.pl3     1 <0>        -0.4380
     19 C13         5.0138    0.1136   -9.3030 C.2       1 <0>         0.0819
     20 C14         5.8852   -0.7405  -10.1874 C.3       1 <0>        -0.0945
     21 C15         6.0315    2.3197   -9.8931 C.3       1 <0>         0.0648
     22 C16         3.9335    3.3395   -7.8896 C.3       1 <0>        -0.0828
     23 S1          2.4952   -3.7310   -6.5740 S.3       1 <0>         0.1219
     24 C17         3.0144   -1.6623   -3.2666 C.3       1 <0>         0.2941
     25 H1          4.0546   -1.4262   -3.0425 H         1 <0>         0.1081
     26 C18         2.2305   -0.3767   -3.2066 C.2       1 <0>        -0.1622
     27 C19         2.5825    0.8130   -2.6607 C.2       1 <0>        -0.1011
     28 C20         1.6929    1.8691   -2.7241 C.2       1 <0>        -0.1540
     29 C21         0.4947    1.6837   -3.3302 C.2       1 <0>        -0.1656
     30 S2          0.6003   -0.0232   -3.8428 S.3       1 <0>         0.0320
     31 C22         1.4773   -4.7398   -1.5156 C.ar      1 <0>        -0.0404
     32 C23         0.3448   -4.3983   -0.7759 C.ar      1 <0>        -0.0534
     33 C24        -0.1365   -5.2655    0.1832 C.ar      1 <0>        -0.1207
     34 C25         0.5018   -6.4714    0.4124 C.ar      1 <0>        -0.1035
     35 C26         1.6254   -6.8158   -0.3178 C.ar      1 <0>        -0.1240
     36 C27         2.1131   -5.9598   -1.2836 C.ar      1 <0>        -0.0805
     37 H2          4.3574    0.9871    0.6536 H         1 <0>         0.0645
     38 H3          2.6683    1.5319    0.5178 H         1 <0>         0.0658
     39 H4          3.3482    1.1297    2.1129 H         1 <0>         0.0777
     40 H5          3.5778   -1.2394    1.4177 H         1 <0>         0.0655
     41 H6          1.8887   -0.6946    1.2819 H         1 <0>         0.0652
     42 H7          3.5183   -2.3955   -9.1432 H         1 <0>         0.1522
     43 H8          2.6457    0.8794   -7.1038 H         1 <0>         0.1396
     44 H9          5.4217   -0.8378  -11.1692 H         1 <0>         0.0814
     45 H10         6.8644   -0.2735  -10.2926 H         1 <0>         0.0704
     46 H11         5.9997   -1.7279   -9.7402 H         1 <0>         0.0846
     47 H12         6.9439    2.4221   -9.3056 H         1 <0>         0.0753
     48 H13         6.2693    1.8735  -10.8587 H         1 <0>         0.0858
     49 H14         5.5862    3.3026  -10.0468 H         1 <0>         0.0872
     50 H15         4.5585    3.5763   -7.0287 H         1 <0>         0.0705
     51 H16         4.1997    3.9909   -8.7221 H         1 <0>         0.0619
     52 H17         2.8856    3.4910   -7.6305 H         1 <0>         0.0792
     53 H18         3.5436    0.9340   -2.1832 H         1 <0>         0.1340
     54 H19         1.9485    2.8274   -2.2968 H         1 <0>         0.1341
     55 H20        -0.3127    2.3872   -3.4703 H         1 <0>         0.1851
     56 H21        -0.1540   -3.4569   -0.9535 H         1 <0>         0.1139
     57 H22        -1.0132   -5.0023    0.7565 H         1 <0>         0.1237
     58 H23         0.1217   -7.1465    1.1648 H         1 <0>         0.1227
     59 H24         2.1193   -7.7586   -0.1342 H         1 <0>         0.1251
     60 H25         2.9878   -6.2316   -1.8558 H         1 <0>         0.1214
@<TRIPOS>BOND
     1    1    2 1
     2    1   37 1
     3    1   38 1
     4    1   39 1
     5    2    3 1
     6    2   40 1
     7    2   41 1
     8    3    4 1
     9    4    5 2
    10    4    6 1
    11    6   24 1
    12    6    7 2
    13    7    8 1
    14    7   31 1
    15    8    9 2
    16    9   23 1
    17    9   10 1
    18   10   11 am
    19   10   24 1
    20   11   12 2
    21   11   13 1
    22   13   14 2
    23   13   23 1
    24   14   15 1
    25   14   42 1
    26   15   19 2
    27   15   16 1
    28   16   17 2
    29   16   43 1
    30   17   18 1
    31   17   22 1
    32   18   19 1
    33   18   21 1
    34   19   20 1
    35   20   44 1
    36   20   45 1
    37   20   46 1
    38   21   47 1
    39   21   48 1
    40   21   49 1
    41   22   50 1
    42   22   51 1
    43   22   52 1
    44   24   25 1
    45   24   26 1
    46   26   30 1
    47   26   27 2
    48   27   28 1
    49   27   53 1
    50   28   29 2
    51   28   54 1
    52   29   30 1
    53   29   55 1
    54   31   36 ar
    55   31   32 ar
    56   32   33 ar
    57   32   56 1
    58   33   34 ar
    59   33   57 1
    60   34   35 ar
    61   34   58 1
    62   35   36 ar
    63   35   59 1
    64   36   60 1
@<TRIPOS>MOLECULE
ZINC03427697
   48    50     0     0     0
SMALL
USER_CHARGES
3-[5-[(4-chlorophenyl)methylsulfanyl]-1,3,4-oxadiazol-2-yl]-N,N-diethyl-benzenesulfonamide
@<TRIPOS>ATOM
      1 C1         -1.1825    0.1697    3.0826 C.3       1 <0>        -0.1757
      2 C2         -1.8460    0.9520    1.9474 C.3       1 <0>         0.1188
      3 N1         -0.8720    1.8711    1.3534 N.pl3     1 <0>        -0.9940
      4 C3         -0.6543    3.1922    1.9480 C.3       1 <0>         0.1072
      5 C4         -1.6934    4.1742    1.4033 C.3       1 <0>        -0.1780
      6 S1         -0.0172    1.4168    0.0098 S.o2      1 <0>         2.6885
      7 O1          0.0021   -0.0041    0.0020 O.2       1 <0>        -0.9462
      8 O2          1.1718    2.1948    0.0027 O.2       1 <0>        -0.9465
      9 C5         -0.9538    1.9155   -1.3968 C.ar      1 <0>        -0.6789
     10 C6         -1.8800    1.0498   -1.9518 C.ar      1 <0>         0.0044
     11 C7         -2.6231    1.4352   -3.0533 C.ar      1 <0>        -0.1343
     12 C8         -2.4374    2.6827   -3.6124 C.ar      1 <0>        -0.0297
     13 C9         -1.5010    3.5589   -3.0609 C.ar      1 <0>        -0.0429
     14 C10        -0.7582    3.1655   -1.9458 C.ar      1 <0>         0.0312
     15 C11        -1.2964    4.8963   -3.6546 C.2       1 <0>         0.2099
     16 N2         -0.4538    5.8096   -3.2377 N.2       1 <0>        -0.2564
     17 N3         -0.5433    6.8494   -3.9901 N.2       1 <0>        -0.2800
     18 C12        -1.4481    6.6403   -4.9185 C.2       1 <0>         0.1339
     19 O3         -1.9395    5.4006   -4.7310 O.3       1 <0>        -0.2001
     20 S2         -1.9261    7.7714   -6.1823 S.3       1 <0>         0.0821
     21 C13        -0.8432    9.1655   -5.7824 C.3       1 <0>        -0.0770
     22 C14        -1.0839   10.2855   -6.7615 C.ar      1 <0>        -0.0848
     23 C15        -0.3462   10.3533   -7.9287 C.ar      1 <0>        -0.0828
     24 C16        -0.5704   11.3771   -8.8297 C.ar      1 <0>        -0.1095
     25 C17        -1.5255   12.3405   -8.5580 C.ar      1 <0>        -0.0228
     26 C18        -2.2595   12.2753   -7.3871 C.ar      1 <0>        -0.1096
     27 C19        -2.0383   11.2478   -6.4895 C.ar      1 <0>        -0.0830
     28 Cl1        -1.8032   13.6304   -9.6862 Cl        1 <0>        -0.0614
     29 H1         -1.9072   -0.5142    3.5245 H         1 <0>         0.0706
     30 H2         -0.3402   -0.3987    2.6882 H         1 <0>         0.0644
     31 H3         -0.8276    0.8645    3.8437 H         1 <0>         0.0609
     32 H4         -2.6884    1.5204    2.3417 H         1 <0>         0.0824
     33 H5         -2.2010    0.2572    1.1863 H         1 <0>         0.0814
     34 H6         -0.7521    3.1236    3.0315 H         1 <0>         0.0887
     35 H7          0.3459    3.5441    1.6951 H         1 <0>         0.0961
     36 H8         -1.5956    4.2429    0.3199 H         1 <0>         0.0536
     37 H9         -2.6935    3.8223    1.6562 H         1 <0>         0.0618
     38 H10        -1.5314    5.1572    1.8457 H         1 <0>         0.0729
     39 H11        -2.0264    0.0706   -1.5205 H         1 <0>         0.1500
     40 H12        -3.3472    0.7563   -3.4789 H         1 <0>         0.1474
     41 H13        -3.0149    2.9807   -4.4750 H         1 <0>         0.1425
     42 H14        -0.0318    3.8384   -1.5145 H         1 <0>         0.1569
     43 H15        -1.0575    9.5138   -4.7720 H         1 <0>         0.1154
     44 H16         0.1973    8.8466   -5.8437 H         1 <0>         0.1155
     45 H17         0.4024    9.6036   -8.1386 H         1 <0>         0.1388
     46 H18         0.0028   11.4275   -9.7436 H         1 <0>         0.1399
     47 H19        -3.0054   13.0269   -7.1746 H         1 <0>         0.1398
     48 H20        -2.6115   11.1966   -5.5755 H         1 <0>         0.1387
@<TRIPOS>BOND
     1    1    2 1
     2    1   29 1
     3    1   30 1
     4    1   31 1
     5    2    3 1
     6    2   32 1
     7    2   33 1
     8    3    4 1
     9    3    6 1
    10    4    5 1
    11    4   34 1
    12    4   35 1
    13    5   36 1
    14    5   37 1
    15    5   38 1
    16    6    7 2
    17    6    8 2
    18    6    9 1
    19    9   14 ar
    20    9   10 ar
    21   10   11 ar
    22   10   39 1
    23   11   12 ar
    24   11   40 1
    25   12   13 ar
    26   12   41 1
    27   13   14 ar
    28   13   15 1
    29   14   42 1
    30   15   19 1
    31   15   16 2
    32   16   17 1
    33   17   18 2
    34   18   19 1
    35   18   20 1
    36   20   21 1
    37   21   22 1
    38   21   43 1
    39   21   44 1
    40   22   27 ar
    41   22   23 ar
    42   23   24 ar
    43   23   45 1
    44   24   25 ar
    45   24   46 1
    46   25   26 ar
    47   25   28 1
    48   26   27 ar
    49   26   47 1
    50   27   48 1
@<TRIPOS>MOLECULE
ZINC03392149
   47    49     0     0     0
SMALL
USER_CHARGES
benzothiazol-2-ylmethyl 4-chloro-3-(diethylsulfamoyl)benzoate
@<TRIPOS>ATOM
      1 C1          2.9827   -0.2489    8.4104 C.3       1 <0>        -0.1743
      2 C2          2.2306    0.0587    7.1140 C.3       1 <0>         0.1109
      3 N1          0.7923   -0.1163    7.3306 N.pl3     1 <0>        -0.9949
      4 C3          0.1932   -1.4494    7.2297 C.3       1 <0>         0.1069
      5 C4         -0.1394   -1.7497    5.7668 C.3       1 <0>        -0.1810
      6 S1         -0.1562    1.1928    7.6894 S.o2      1 <0>         2.6845
      7 O1          0.6803    2.1311    8.3521 O.2       1 <0>        -0.9350
      8 O2         -1.3453    0.6837    8.2777 O.2       1 <0>        -0.9332
      9 C5         -0.6269    1.9301    6.1599 C.ar      1 <0>        -0.6812
     10 C6          0.0394    1.5940    5.0002 C.ar      1 <0>         0.0437
     11 C7         -0.3351    2.1789    3.7887 C.ar      1 <0>        -0.1380
     12 C8         -1.3800    3.1055    3.7606 C.ar      1 <0>         0.0014
     13 C9         -2.0421    3.4290    4.9258 C.ar      1 <0>        -0.1321
     14 C10        -1.6655    2.8456    6.1247 C.ar      1 <0>         0.0847
     15 Cl1        -2.4994    3.2635    7.5888 Cl        1 <0>        -0.0236
     16 C11         0.3745    1.8238    2.5434 C.2       1 <0>         0.5192
     17 O3          1.2862    1.0214    2.5715 O.2       1 <0>        -0.4898
     18 O4          0.0109    2.3897    1.3761 O.3       1 <0>        -0.3443
     19 C12         0.7525    1.9936    0.1923 C.3       1 <0>         0.1616
     20 C13         0.2090    2.7239   -1.0087 C.2       1 <0>         0.1120
     21 N2          0.5815    3.8759   -1.4912 N.2       1 <0>        -0.4758
     22 C14         0.0086    4.4238   -2.5831 C.ar      1 <0>         0.0675
     23 C15         0.2986    5.6508   -3.2199 C.ar      1 <0>        -0.0503
     24 C16        -0.3937    6.0409   -4.3242 C.ar      1 <0>        -0.1121
     25 C17        -1.4038    5.2572   -4.8648 C.ar      1 <0>        -0.0828
     26 C18        -1.7177    4.0494   -4.2708 C.ar      1 <0>        -0.0702
     27 C19        -1.0241    3.6464   -3.1556 C.ar      1 <0>        -0.1439
     28 S2         -1.0590    2.2296   -2.0869 S.3       1 <0>         0.0612
     29 H1          2.6481    0.4303    9.1945 H         1 <0>         0.0655
     30 H2          2.7830   -1.2774    8.7110 H         1 <0>         0.0623
     31 H3          4.0529   -0.1187    8.2493 H         1 <0>         0.0720
     32 H4          2.5653   -0.6205    6.3299 H         1 <0>         0.0874
     33 H5          2.4303    1.0872    6.8134 H         1 <0>         0.0820
     34 H6          0.8974   -2.1933    7.6023 H         1 <0>         0.0914
     35 H7         -0.7197   -1.4833    7.8242 H         1 <0>         0.0978
     36 H8         -0.8435   -1.0057    5.3942 H         1 <0>         0.0533
     37 H9          0.7736   -1.7157    5.1723 H         1 <0>         0.0651
     38 H10        -0.5851   -2.7415    5.6918 H         1 <0>         0.0754
     39 H11         0.8494    0.8802    5.0290 H         1 <0>         0.1597
     40 H12        -1.6715    3.5643    2.8273 H         1 <0>         0.1593
     41 H13        -2.8530    4.1419    4.9046 H         1 <0>         0.1585
     42 H14         0.6493    0.9191    0.0415 H         1 <0>         0.1098
     43 H15         1.8056    2.2427    0.3230 H         1 <0>         0.1141
     44 H16         1.0784    6.2859   -2.8262 H         1 <0>         0.1361
     45 H17        -0.1516    6.9840   -4.7915 H         1 <0>         0.1384
     46 H18        -1.9394    5.5882   -5.7423 H         1 <0>         0.1429
     47 H19        -2.5013    3.4284   -4.6793 H         1 <0>         0.1380
@<TRIPOS>BOND
     1    1    2 1
     2    1   29 1
     3    1   30 1
     4    1   31 1
     5    2    3 1
     6    2   32 1
     7    2   33 1
     8    3    4 1
     9    3    6 1
    10    4    5 1
    11    4   34 1
    12    4   35 1
    13    5   36 1
    14    5   37 1
    15    5   38 1
    16    6    7 2
    17    6    8 2
    18    6    9 1
    19    9   14 ar
    20    9   10 ar
    21   10   11 ar
    22   10   39 1
    23   11   12 ar
    24   11   16 1
    25   12   13 ar
    26   12   40 1
    27   13   14 ar
    28   13   41 1
    29   14   15 1
    30   16   17 2
    31   16   18 1
    32   18   19 1
    33   19   20 1
    34   19   42 1
    35   19   43 1
    36   20   28 1
    37   20   21 2
    38   21   22 1
    39   22   27 ar
    40   22   23 ar
    41   23   24 ar
    42   23   44 1
    43   24   25 ar
    44   24   45 1
    45   25   26 ar
    46   25   46 1
    47   26   27 ar
    48   26   47 1
    49   27   28 1
@<TRIPOS>MOLECULE
ZINC22574681
   49    52     0     0     0
SMALL
USER_CHARGES
4-allyl-3-[(2-fluorophenoxy)methyl]-5-[(5-phenyloxazol-2-yl)methylsulfanyl]-1,2,4-triazole
@<TRIPOS>ATOM
      1 C1         -0.7348    3.7592   -6.2046 C.2       1 <0>        -0.1541
      2 C2         -0.7063    3.2619   -4.9930 C.2       1 <0>        -0.1926
      3 C3         -1.1388    1.8385   -4.7523 C.3       1 <0>         0.1264
      4 N1         -0.0657    1.1107   -4.0705 N.pl3     1 <0>        -0.4440
      5 C4          0.9579    0.4139   -4.6510 C.2       1 <0>         0.1823
      6 N2          1.6828   -0.0836   -3.6894 N.2       1 <0>        -0.2489
      7 N3          1.1945    0.2530   -2.5492 N.2       1 <0>        -0.2852
      8 C5          0.1221    0.9900   -2.7235 C.2       1 <0>         0.1616
      9 S1         -0.8881    1.6854   -1.4584 S.3       1 <0>         0.0466
     10 C6         -0.0127    1.0858    0.0080 C.3       1 <0>        -0.0162
     11 C7         -0.7181    1.5718    1.2479 C.2       1 <0>         0.1921
     12 N4         -1.6771    0.9435    1.8683 N.2       1 <0>        -0.4485
     13 C8         -2.0583    1.6709    2.9288 C.2       1 <0>        -0.0195
     14 C9         -1.3001    2.7971    2.9458 C.2       1 <0>         0.0144
     15 O1         -0.4643    2.7220    1.8867 O.3       1 <0>        -0.1861
     16 C10        -1.3749    3.8948    3.9330 C.ar      1 <0>        -0.0224
     17 C11        -2.2990    3.8364    4.9774 C.ar      1 <0>        -0.0921
     18 C12        -2.3597    4.8615    5.8987 C.ar      1 <0>        -0.1147
     19 C13        -1.5152    5.9513    5.7823 C.ar      1 <0>        -0.1057
     20 C14        -0.6005    6.0178    4.7464 C.ar      1 <0>        -0.1162
     21 C15        -0.5256    4.9968    3.8216 C.ar      1 <0>        -0.0971
     22 C16         1.1990    0.2470   -6.1292 C.3       1 <0>         0.1492
     23 O2          0.5116   -0.9157   -6.5957 O.3       1 <0>        -0.3023
     24 C17         0.6263   -1.2118   -7.9177 C.ar      1 <0>         0.0957
     25 C18         1.3797   -0.3971   -8.7491 C.ar      1 <0>        -0.1824
     26 C19         1.4984   -0.7022  -10.0916 C.ar      1 <0>        -0.0875
     27 C20         0.8589   -1.8133  -10.6092 C.ar      1 <0>        -0.1244
     28 C21         0.1027   -2.6257   -9.7847 C.ar      1 <0>        -0.1147
     29 C22        -0.0158   -2.3278   -8.4391 C.ar      1 <0>         0.0735
     30 F1         -0.7553   -3.1209   -7.6332 F         1 <0>        -0.1303
     31 H1         -0.4191    4.7982   -6.3802 H         1 <0>         0.1151
     32 H2         -1.0744    3.1378   -7.0463 H         1 <0>         0.1056
     33 H3         -0.3667    3.8833   -4.1513 H         1 <0>         0.1252
     34 H4         -2.0427    1.8310   -4.1255 H         1 <0>         0.1131
     35 H5         -1.3564    1.3535   -5.7153 H         1 <0>         0.1088
     36 H6          0.0022   -0.0141    0.0019 H         1 <0>         0.1452
     37 H7          1.0193    1.4665    0.0002 H         1 <0>         0.1322
     38 H8         -2.8306    1.4105    3.6374 H         1 <0>         0.1928
     39 H9         -2.9623    2.9888    5.0664 H         1 <0>         0.1315
     40 H10        -3.0712    4.8155    6.7099 H         1 <0>         0.1329
     41 H11        -1.5701    6.7534    6.5034 H         1 <0>         0.1290
     42 H12         0.0561    6.8711    4.6613 H         1 <0>         0.1302
     43 H13         0.1889    5.0499    3.0134 H         1 <0>         0.1287
     44 H14         0.8257    1.1329   -6.6639 H         1 <0>         0.0881
     45 H15         2.2774    0.1344   -6.3144 H         1 <0>         0.1083
     46 H16         1.8764    0.4735   -8.3469 H         1 <0>         0.1386
     47 H17         2.0884   -0.0696  -10.7382 H         1 <0>         0.1354
     48 H18         0.9498   -2.0469  -11.6598 H         1 <0>         0.1373
     49 H19        -0.3959   -3.4931  -10.1915 H         1 <0>         0.1448
@<TRIPOS>BOND
     1    1    2 2
     2    1   31 1
     3    1   32 1
     4    2    3 1
     5    2   33 1
     6    3    4 1
     7    3   34 1
     8    3   35 1
     9    4    8 1
    10    4    5 1
    11    5    6 2
    12    5   22 1
    13    6    7 1
    14    7    8 2
    15    8    9 1
    16    9   10 1
    17   10   11 1
    18   10   36 1
    19   10   37 1
    20   11   15 1
    21   11   12 2
    22   12   13 1
    23   13   14 2
    24   13   38 1
    25   14   15 1
    26   14   16 1
    27   16   21 ar
    28   16   17 ar
    29   17   18 ar
    30   17   39 1
    31   18   19 ar
    32   18   40 1
    33   19   20 ar
    34   19   41 1
    35   20   21 ar
    36   20   42 1
    37   21   43 1
    38   22   23 1
    39   22   44 1
    40   22   45 1
    41   23   24 1
    42   24   29 ar
    43   24   25 ar
    44   25   26 ar
    45   25   46 1
    46   26   27 ar
    47   26   47 1
    48   27   28 ar
    49   27   48 1
    50   28   29 ar
    51   28   49 1
    52   29   30 1
@<TRIPOS>MOLECULE
ZINC34776127
   58    60     0     0     0
SMALL
USER_CHARGES

@<TRIPOS>ATOM
      1 C1         -0.1794    1.5363    0.2487 C.3       1 <0>        -0.1534
      2 C2         -0.1376    0.0073    0.2137 C.3       1 <0>        -0.1194
      3 C3         -1.5655   -0.5413    0.1798 C.3       1 <0>        -0.1406
      4 C4         -1.5237   -2.0703    0.1448 C.3       1 <0>         0.1021
      5 N1         -2.8909   -2.5956    0.1123 N.am      1 <0>        -0.4906
      6 C5         -3.5404   -2.8599    1.2847 C.2       1 <0>         0.0693
      7 C6         -4.8498   -3.3629    1.2900 C.2       1 <0>        -0.2782
      8 C7         -5.4073   -3.5940    2.5532 C.2       1 <0>         0.0738
      9 C8         -4.6289   -3.3095    3.6390 C.2       1 <0>        -0.2836
     10 S1         -3.1209   -2.7197    2.8962 S.3       1 <0>         0.3349
     11 C9         -4.9530   -3.4530    5.0583 C.2       1 <0>         0.5610
     12 O1         -6.0432   -3.8762    5.3934 O.2       1 <0>        -0.4870
     13 O2         -4.0429   -3.1160    5.9955 O.3       1 <0>        -0.3498
     14 C10        -4.4269   -3.2818    7.3619 C.3       1 <0>         0.0628
     15 C11        -3.2744   -2.8513    8.2714 C.3       1 <0>        -0.1534
     16 C12        -6.8061   -4.1328    2.7083 C.3       1 <0>        -0.1222
     17 C13        -5.4593   -3.5796   -0.0450 C.2       1 <0>         0.5807
     18 O3         -6.5922   -4.0131   -0.1419 O.2       1 <0>        -0.4803
     19 N2         -4.7444   -3.2907   -1.1466 N.am      1 <0>        -0.5511
     20 C14        -3.4942   -2.8068   -1.0722 C.2       1 <0>         0.7082
     21 O4         -2.8917   -2.5575   -2.0984 O.2       1 <0>        -0.5134
     22 C15        -5.3480   -3.5054   -2.4641 C.3       1 <0>         0.1538
     23 C16        -6.1440   -2.2874   -2.8565 C.ar      1 <0>        -0.1026
     24 C17        -6.1084   -1.1540   -2.0655 C.ar      1 <0>        -0.1010
     25 C18        -6.8384   -0.0370   -2.4254 C.ar      1 <0>        -0.1196
     26 C19        -7.6040   -0.0528   -3.5765 C.ar      1 <0>        -0.0801
     27 C20        -7.6389   -1.1855   -4.3677 C.ar      1 <0>        -0.1148
     28 C21        -6.9052   -2.3014   -4.0100 C.ar      1 <0>        -0.0687
     29 C22        -6.9391   -3.5347   -4.8755 C.3       1 <0>        -0.1204
     30 C23        -8.4007    1.1649   -3.9684 C.3       1 <0>        -0.1157
     31 H1          0.8378    1.9271    0.2729 H         1 <0>         0.0592
     32 H2         -0.6897    1.9063   -0.6406 H         1 <0>         0.0554
     33 H3         -0.7161    1.8649    1.1387 H         1 <0>         0.0556
     34 H4          0.3991   -0.3212   -0.6763 H         1 <0>         0.0690
     35 H5          0.3727   -0.3627    1.1030 H         1 <0>         0.0680
     36 H6         -2.1022   -0.2127    1.0698 H         1 <0>         0.0705
     37 H7         -2.0758   -0.1713   -0.7095 H         1 <0>         0.0764
     38 H8         -0.9870   -2.3988   -0.7452 H         1 <0>         0.1146
     39 H9         -1.0134   -2.4403    1.0341 H         1 <0>         0.0978
     40 H10        -5.3030   -2.6676    7.5702 H         1 <0>         0.0716
     41 H11        -4.6648   -4.3291    7.5479 H         1 <0>         0.0717
     42 H12        -2.3983   -3.4654    8.0631 H         1 <0>         0.0679
     43 H13        -3.0364   -1.8039    8.0854 H         1 <0>         0.0678
     44 H14        -3.5673   -2.9777    9.3137 H         1 <0>         0.0825
     45 H15        -6.7752   -5.2221    2.7326 H         1 <0>         0.0869
     46 H16        -7.2379   -3.7607    3.6373 H         1 <0>         0.0932
     47 H17        -7.4169   -3.8054    1.8670 H         1 <0>         0.0894
     48 H18        -4.5625   -3.6786   -3.1997 H         1 <0>         0.1168
     49 H19        -6.0068   -4.3729   -2.4249 H         1 <0>         0.1138
     50 H20        -5.5104   -1.1416   -1.1663 H         1 <0>         0.1044
     51 H21        -6.8111    0.8482   -1.8071 H         1 <0>         0.1208
     52 H22        -8.2371   -1.1980   -5.2668 H         1 <0>         0.1257
     53 H23        -7.7949   -4.1500   -4.5978 H         1 <0>         0.0759
     54 H24        -7.0263   -3.2420   -5.9218 H         1 <0>         0.0716
     55 H25        -6.0207   -4.1041   -4.7327 H         1 <0>         0.0667
     56 H26        -7.7910    1.8100   -4.6009 H         1 <0>         0.0716
     57 H27        -9.2911    0.8557   -4.5159 H         1 <0>         0.0678
     58 H28        -8.6964    1.7096   -3.0718 H         1 <0>         0.0665
@<TRIPOS>BOND
     1    1    2 1
     2    1   31 1
     3    1   32 1
     4    1   33 1
     5    2    3 1
     6    2   34 1
     7    2   35 1
     8    3    4 1
     9    3   36 1
    10    3   37 1
    11    4    5 1
    12    4   38 1
    13    4   39 1
    14    5   20 am
    15    5    6 1
    16    6   10 1
    17    6    7 2
    18    7    8 1
    19    7   17 1
    20    8    9 2
    21    8   16 1
    22    9   10 1
    23    9   11 1
    24   11   12 2
    25   11   13 1
    26   13   14 1
    27   14   15 1
    28   14   40 1
    29   14   41 1
    30   15   42 1
    31   15   43 1
    32   15   44 1
    33   16   45 1
    34   16   46 1
    35   16   47 1
    36   17   18 2
    37   17   19 am
    38   19   20 am
    39   19   22 1
    40   20   21 2
    41   22   23 1
    42   22   48 1
    43   22   49 1
    44   23   28 ar
    45   23   24 ar
    46   24   25 ar
    47   24   50 1
    48   25   26 ar
    49   25   51 1
    50   26   27 ar
    51   26   30 1
    52   27   28 ar
    53   27   52 1
    54   28   29 1
    55   29   53 1
    56   29   54 1
    57   29   55 1
    58   30   56 1
    59   30   57 1
    60   30   58 1
@<TRIPOS>MOLECULE
ZINC44429050
   54    57     0     0     0
SMALL
USER_CHARGES

@<TRIPOS>ATOM
      1 C1         -0.0187    1.5258    0.0104 C.3       1 <0>        -0.1534
      2 C2          0.0021   -0.0041    0.0020 C.3       1 <0>        -0.1220
      3 C3          0.7182   -0.4975   -1.2568 C.3       1 <0>        -0.1208
      4 C4          0.7390   -2.0273   -1.2652 C.3       1 <0>         0.0539
      5 O1          1.4078   -2.4882   -2.4409 O.3       1 <0>        -0.3070
      6 C5          1.5135   -3.8320   -2.6032 C.ar      1 <0>         0.1732
      7 C6          0.9776   -4.6893   -1.6501 C.ar      1 <0>        -0.2172
      8 C7          1.0832   -6.0534   -1.8109 C.ar      1 <0>        -0.0236
      9 C8          1.7297   -6.5744   -2.9342 C.ar      1 <0>        -0.0983
     10 C9          2.2667   -5.7092   -3.8903 C.ar      1 <0>        -0.0089
     11 C10         2.1524   -4.3463   -3.7248 C.ar      1 <0>        -0.1602
     12 C11         1.8455   -8.0359   -3.1102 C.2       1 <0>         0.3528
     13 N1          2.4313   -8.6495   -4.1148 N.2       1 <0>        -0.5385
     14 C12         2.3499   -9.9717   -3.9515 C.2       1 <0>         0.2667
     15 N2          1.7130  -10.2265   -2.8437 N.2       1 <0>        -0.3347
     16 O2          1.3755   -8.9733   -2.2684 O.3       1 <0>        -0.0988
     17 C13         2.9055  -11.0048   -4.8976 C.3       1 <0>        -0.0176
     18 H1          3.3812  -10.5295   -5.7554 H         1 <0>         0.1300
     19 C14         1.8029  -11.9893   -5.3514 C.3       1 <0>        -0.1466
     20 C15         2.5080  -13.3255   -5.4300 C.2       1 <0>         0.5267
     21 O3          2.0823  -14.3026   -6.0087 O.2       1 <0>        -0.5172
     22 N3          3.6753  -13.2720   -4.7655 N.am      1 <0>        -0.6104
     23 C16         3.8906  -11.9470   -4.1708 C.3       1 <0>         0.0982
     24 C17         4.6128  -14.3918   -4.6500 C.3       1 <0>         0.1653
     25 C18         5.5903  -14.3487   -5.7962 C.ar      1 <0>        -0.1148
     26 C19         5.4044  -15.1683   -6.8939 C.ar      1 <0>        -0.0533
     27 C20         6.2999  -15.1298   -7.9455 C.ar      1 <0>        -0.1474
     28 C21         7.3846  -14.2699   -7.9002 C.ar      1 <0>         0.1208
     29 C22         7.5705  -13.4490   -6.8014 C.ar      1 <0>        -0.1483
     30 C23         6.6700  -13.4850   -5.7518 C.ar      1 <0>         0.0031
     31 Cl1         6.8989  -12.4515   -4.3759 Cl        1 <0>        -0.0475
     32 F1          8.2609  -14.2326   -8.9278 F         1 <0>        -0.1290
     33 H2          1.0039    1.9031    0.0027 H         1 <0>         0.0566
     34 H3         -0.5459    1.8868   -0.8726 H         1 <0>         0.0566
     35 H4         -0.5289    1.8773    0.9072 H         1 <0>         0.0584
     36 H5          0.5293   -0.3651    0.8851 H         1 <0>         0.0656
     37 H6         -1.0205   -0.3814    0.0098 H         1 <0>         0.0656
     38 H7          0.1910   -0.1364   -2.1398 H         1 <0>         0.0759
     39 H8          1.7408   -0.1202   -1.2645 H         1 <0>         0.0759
     40 H9          1.2661   -2.3884   -0.3821 H         1 <0>         0.0676
     41 H10        -0.2836   -2.4046   -1.2575 H         1 <0>         0.0676
     42 H11         0.4779   -4.2857   -0.7819 H         1 <0>         0.1408
     43 H12         0.6670   -6.7191   -1.0692 H         1 <0>         0.1402
     44 H13         2.7677   -6.1081   -4.7600 H         1 <0>         0.1505
     45 H14         2.5635   -3.6767   -4.4657 H         1 <0>         0.1456
     46 H15         0.9980  -12.0254   -4.6173 H         1 <0>         0.1136
     47 H16         1.4158  -11.7041   -6.3296 H         1 <0>         0.1163
     48 H17         4.9172  -11.6204   -4.3372 H         1 <0>         0.1014
     49 H18         3.6705  -11.9724   -3.1036 H         1 <0>         0.0818
     50 H19         5.1547  -14.3162   -3.7073 H         1 <0>         0.0980
     51 H20         4.0614  -15.3316   -4.6779 H         1 <0>         0.1034
     52 H21         4.5588  -15.8393   -6.9294 H         1 <0>         0.1484
     53 H22         6.1543  -15.7706   -8.8026 H         1 <0>         0.1460
     54 H23         8.4162  -12.7783   -6.7650 H         1 <0>         0.1491
@<TRIPOS>BOND
     1    1    2 1
     2    1   33 1
     3    1   34 1
     4    1   35 1
     5    2    3 1
     6    2   36 1
     7    2   37 1
     8    3    4 1
     9    3   38 1
    10    3   39 1
    11    4    5 1
    12    4   40 1
    13    4   41 1
    14    5    6 1
    15    6   11 ar
    16    6    7 ar
    17    7    8 ar
    18    7   42 1
    19    8    9 ar
    20    8   43 1
    21    9   10 ar
    22    9   12 1
    23   10   11 ar
    24   10   44 1
    25   11   45 1
    26   12   16 1
    27   12   13 2
    28   13   14 1
    29   14   15 2
    30   14   17 1
    31   15   16 1
    32   17   18 1
    33   17   23 1
    34   17   19 1
    35   19   20 1
    36   19   46 1
    37   19   47 1
    38   20   21 2
    39   20   22 am
    40   22   23 1
    41   22   24 1
    42   23   48 1
    43   23   49 1
    44   24   25 1
    45   24   50 1
    46   24   51 1
    47   25   30 ar
    48   25   26 ar
    49   26   27 ar
    50   26   52 1
    51   27   28 ar
    52   27   53 1
    53   28   29 ar
    54   28   32 1
    55   29   30 ar
    56   29   54 1
    57   30   31 1
@<TRIPOS>MOLECULE
ZINC06071200
   48    50     0     0     0
SMALL
USER_CHARGES
2-[[4-allyl-5-(4-chlorophenyl)-1,2,4-triazol-3-yl]sulfanyl]-1-(4-ethoxyphenyl)-ethanone
@<TRIPOS>ATOM
      1 C1         -3.4650    5.2325  -12.7859 C.3       1 <0>        -0.1543
      2 C2         -3.2989    4.7965  -11.3288 C.3       1 <0>         0.0505
      3 O1         -2.5516    5.7855  -10.6179 O.3       1 <0>        -0.3092
      4 C3         -2.3139    5.5507   -9.3030 C.ar      1 <0>         0.1721
      5 C4         -1.5923    6.4738   -8.5536 C.ar      1 <0>        -0.1664
      6 C5         -1.3497    6.2414   -7.2243 C.ar      1 <0>        -0.0121
      7 C6         -1.8297    5.0722   -6.6214 C.ar      1 <0>        -0.2107
      8 C7         -2.5507    4.1432   -7.3818 C.ar      1 <0>        -0.0251
      9 C8         -2.7929    4.3879   -8.7091 C.ar      1 <0>        -0.2232
     10 C9         -1.5728    4.8182   -5.1979 C.2       1 <0>         0.4212
     11 O2         -0.9438    5.6218   -4.5423 O.2       1 <0>        -0.4396
     12 C10        -2.0906    3.5591   -4.5517 C.3       1 <0>        -0.1575
     13 S1         -1.6147    3.5374   -2.8055 S.3       1 <0>         0.0652
     14 C11        -2.3280    2.0034   -2.3130 C.2       1 <0>         0.1533
     15 N1         -2.9992    1.1737   -3.0801 N.2       1 <0>        -0.2894
     16 N2         -3.3822    0.1540   -2.3982 N.2       1 <0>        -0.2618
     17 C12        -2.9746    0.2671   -1.1556 C.2       1 <0>         0.2239
     18 N3         -2.2839    1.4534   -1.0636 N.pl3     1 <0>        -0.4506
     19 C13        -1.6406    2.0131    0.1277 C.3       1 <0>         0.1236
     20 C14        -0.2018    1.5676    0.1778 C.2       1 <0>        -0.2045
     21 C15         0.7567    2.4568    0.2602 C.2       1 <0>        -0.1332
     22 C16        -3.2135   -0.6976   -0.0612 C.ar      1 <0>        -0.0123
     23 C17        -2.4153   -0.6704    1.0836 C.ar      1 <0>        -0.1071
     24 C18        -2.6458   -1.5703    2.1032 C.ar      1 <0>        -0.1050
     25 C19        -3.6603   -2.5057    1.9886 C.ar      1 <0>        -0.0222
     26 C20        -4.4521   -2.5411    0.8531 C.ar      1 <0>        -0.1053
     27 C21        -4.2343   -1.6432   -0.1711 C.ar      1 <0>        -0.0614
     28 Cl1        -3.9404   -3.6391    3.2735 Cl        1 <0>        -0.0594
     29 H1         -4.0350    4.4780  -13.3282 H         1 <0>         0.0816
     30 H2         -3.9952    6.1841  -12.8222 H         1 <0>         0.0680
     31 H3         -2.4831    5.3458  -13.2454 H         1 <0>         0.0680
     32 H4         -2.7687    3.8448  -11.2924 H         1 <0>         0.0669
     33 H5         -4.2808    4.6831  -10.8693 H         1 <0>         0.0670
     34 H6         -1.2222    7.3750   -9.0197 H         1 <0>         0.1406
     35 H7         -0.7896    6.9590   -6.6431 H         1 <0>         0.1437
     36 H8         -2.9193    3.2378   -6.9226 H         1 <0>         0.1377
     37 H9         -3.3529    3.6744   -9.2954 H         1 <0>         0.1374
     38 H10        -1.7003    2.7626   -5.0135 H         1 <0>         0.1177
     39 H11        -3.1772    3.5296   -4.6325 H         1 <0>         0.1335
     40 H12        -2.1605    1.6634    1.0196 H         1 <0>         0.1151
     41 H13        -1.6827    3.1015    0.0859 H         1 <0>         0.1071
     42 H14         0.0393    0.5155    0.1413 H         1 <0>         0.1212
     43 H15         1.7880    2.1377    0.2917 H         1 <0>         0.1124
     44 H16         0.5156    3.5089    0.2968 H         1 <0>         0.1065
     45 H17        -1.6213    0.0564    1.1724 H         1 <0>         0.1422
     46 H18        -2.0310   -1.5479    2.9909 H         1 <0>         0.1420
     47 H19        -5.2414   -3.2734    0.7690 H         1 <0>         0.1441
     48 H20        -4.8522   -1.6720   -1.0564 H         1 <0>         0.1473
@<TRIPOS>BOND
     1    1    2 1
     2    1   29 1
     3    1   30 1
     4    1   31 1
     5    2    3 1
     6    2   32 1
     7    2   33 1
     8    3    4 1
     9    4    9 ar
    10    4    5 ar
    11    5    6 ar
    12    5   34 1
    13    6    7 ar
    14    6   35 1
    15    7    8 ar
    16    7   10 1
    17    8    9 ar
    18    8   36 1
    19    9   37 1
    20   10   11 2
    21   10   12 1
    22   12   13 1
    23   12   38 1
    24   12   39 1
    25   13   14 1
    26   14   18 1
    27   14   15 2
    28   15   16 1
    29   16   17 2
    30   17   18 1
    31   17   22 1
    32   18   19 1
    33   19   20 1
    34   19   40 1
    35   19   41 1
    36   20   21 2
    37   20   42 1
    38   21   43 1
    39   21   44 1
    40   22   27 ar
    41   22   23 ar
    42   23   24 ar
    43   23   45 1
    44   24   25 ar
    45   24   46 1
    46   25   26 ar
    47   25   28 1
    48   26   27 ar
    49   26   47 1
    50   27   48 1
@<TRIPOS>MOLECULE
ZINC12111317
   50    53     0     0     0
SMALL
USER_CHARGES
4-[2-[(5-benzyl-4-phenyl-1,2,4-triazol-3-yl)sulfanyl]ethoxy]benzonitrile
@<TRIPOS>ATOM
      1 C1         -2.3746   -1.7508   -4.0120 C.ar      1 <0>        -0.1149
      2 C2         -1.4616   -2.5696   -3.3741 C.ar      1 <0>        -0.1198
      3 C3         -1.0812   -2.2987   -2.0731 C.ar      1 <0>        -0.1083
      4 C4         -1.6137   -1.2089   -1.4099 C.ar      1 <0>        -0.0905
      5 C5         -2.5307   -0.3932   -2.0461 C.ar      1 <0>        -0.0989
      6 C6         -2.9072   -0.6611   -3.3489 C.ar      1 <0>        -0.1183
      7 C7         -1.1993   -0.9138    0.0086 C.3       1 <0>         0.0060
      8 C8          0.0021   -0.0041    0.0020 C.2       1 <0>         0.2087
      9 N1         -0.0156    1.2989    0.0092 N.2       1 <0>        -0.2722
     10 N2          1.1847    1.7579    0.0002 N.2       1 <0>        -0.2802
     11 C9          2.0433    0.7648   -0.0133 C.2       1 <0>         0.1594
     12 N3          1.3153   -0.3934   -0.0126 N.pl3     1 <0>        -0.4142
     13 C10         1.8102   -1.7056   -0.0244 C.ar      1 <0>         0.1022
     14 C11         1.5958   -2.5395    1.0645 C.ar      1 <0>        -0.1024
     15 C12         2.0798   -3.8330    1.0478 C.ar      1 <0>        -0.1038
     16 C13         2.7868   -4.2941   -0.0475 C.ar      1 <0>        -0.0995
     17 C14         3.0064   -3.4641   -1.1313 C.ar      1 <0>        -0.1030
     18 C15         2.5202   -2.1712   -1.1226 C.ar      1 <0>        -0.0963
     19 S1          3.8002    0.8983   -0.0285 S.3       1 <0>         0.0336
     20 C16         3.9786    2.6995   -0.0211 C.3       1 <0>        -0.1170
     21 C17         5.4642    3.0649   -0.0326 C.3       1 <0>         0.0737
     22 O1          5.6051    4.4869   -0.0267 O.3       1 <0>        -0.3006
     23 C18         6.8695    4.9811   -0.0356 C.ar      1 <0>         0.1621
     24 C19         7.9532    4.1113   -0.0441 C.ar      1 <0>        -0.2118
     25 C20         9.2376    4.6084   -0.0589 C.ar      1 <0>        -0.0263
     26 C21         9.4502    5.9897   -0.0543 C.ar      1 <0>        -0.0686
     27 C22         8.3575    6.8609   -0.0401 C.ar      1 <0>        -0.0280
     28 C23         7.0763    6.3553   -0.0306 C.ar      1 <0>        -0.1499
     29 C24        10.7839    6.5110   -0.0647 C.1       1 <0>         0.2544
     30 N4         11.8420    6.9245   -0.0729 N.1       1 <0>        -0.4176
     31 H1         -2.6721   -1.9627   -5.0284 H         1 <0>         0.1233
     32 H2         -1.0458   -3.4212   -3.8921 H         1 <0>         0.1228
     33 H3         -0.3682   -2.9386   -1.5745 H         1 <0>         0.1174
     34 H4         -2.9501    0.4557   -1.5265 H         1 <0>         0.1276
     35 H5         -3.6207   -0.0216   -3.8472 H         1 <0>         0.1252
     36 H6         -0.9468   -1.8456    0.5147 H         1 <0>         0.0945
     37 H7         -2.0212   -0.4266    0.5333 H         1 <0>         0.1141
     38 H8          1.0476   -2.1785    1.9221 H         1 <0>         0.1313
     39 H9          1.9101   -4.4835    1.8932 H         1 <0>         0.1373
     40 H10         3.1678   -5.3046   -0.0565 H         1 <0>         0.1346
     41 H11         3.5589   -3.8269   -1.9855 H         1 <0>         0.1371
     42 H12         2.6920   -1.5234   -1.9694 H         1 <0>         0.1314
     43 H13         3.4950    3.1162   -0.9046 H         1 <0>         0.1120
     44 H14         3.5111    3.1072    0.8752 H         1 <0>         0.1122
     45 H15         5.9478    2.6482    0.8509 H         1 <0>         0.0791
     46 H16         5.9317    2.6572   -0.9289 H         1 <0>         0.0789
     47 H17         7.7881    3.0440   -0.0432 H         1 <0>         0.1392
     48 H18        10.0793    3.9318   -0.0699 H         1 <0>         0.1373
     49 H19         8.5174    7.9290   -0.0361 H         1 <0>         0.1420
     50 H20         6.2313    7.0277   -0.0196 H         1 <0>         0.1447
@<TRIPOS>BOND
     1    1    6 ar
     2    1    2 ar
     3    1   31 1
     4    2    3 ar
     5    2   32 1
     6    3    4 ar
     7    3   33 1
     8    4    5 ar
     9    4    7 1
    10    5    6 ar
    11    5   34 1
    12    6   35 1
    13    7    8 1
    14    7   36 1
    15    7   37 1
    16    8   12 1
    17    8    9 2
    18    9   10 1
    19   10   11 2
    20   11   12 1
    21   11   19 1
    22   12   13 1
    23   13   18 ar
    24   13   14 ar
    25   14   15 ar
    26   14   38 1
    27   15   16 ar
    28   15   39 1
    29   16   17 ar
    30   16   40 1
    31   17   18 ar
    32   17   41 1
    33   18   42 1
    34   19   20 1
    35   20   21 1
    36   20   43 1
    37   20   44 1
    38   21   22 1
    39   21   45 1
    40   21   46 1
    41   22   23 1
    42   23   28 ar
    43   23   24 ar
    44   24   25 ar
    45   24   47 1
    46   25   26 ar
    47   25   48 1
    48   26   27 ar
    49   26   29 1
    50   27   28 ar
    51   27   49 1
    52   28   50 1
    53   29   30 3
@<TRIPOS>MOLECULE
ZINC02793146
   44    46     0     0     0
SMALL
USER_CHARGES
2-[[5-[4-(difluoromethoxy)phenyl]-4-ethyl-1,2,4-triazol-3-yl]sulfanyl]-1-(2,4-difluorophenyl)ethanone
@<TRIPOS>ATOM
      1 C1         -2.7614   -0.4138   -1.9030 C.3       1 <0>        -0.1812
      2 C2         -2.4722   -0.4407   -0.4009 C.3       1 <0>         0.0845
      3 N1         -1.0790   -0.8356   -0.1788 N.pl3     1 <0>        -0.4539
      4 C3          0.0037   -0.0040   -0.0079 C.2       1 <0>         0.2326
      5 N2          1.0548   -0.7711    0.1658 N.2       1 <0>        -0.2671
      6 N3          0.7095   -2.0077    0.1113 N.2       1 <0>        -0.2890
      7 C4         -0.5834   -2.1064   -0.1006 C.2       1 <0>         0.1469
      8 S1         -1.5070   -3.5995   -0.2504 S.3       1 <0>         0.0672
      9 C5         -0.1815   -4.8123   -0.0310 C.3       1 <0>        -0.1724
     10 C6         -0.7533   -6.2036   -0.1232 C.2       1 <0>         0.4162
     11 O1         -1.9403   -6.3597   -0.3180 O.2       1 <0>        -0.4207
     12 C7          0.1264   -7.3700    0.0229 C.ar      1 <0>        -0.2156
     13 C8          1.4973   -7.1938    0.2480 C.ar      1 <0>        -0.0113
     14 C9          2.3162   -8.2915    0.3845 C.ar      1 <0>        -0.1753
     15 C10         1.7878   -9.5726    0.2998 C.ar      1 <0>         0.1712
     16 C11         0.4331   -9.7576    0.0770 C.ar      1 <0>        -0.2078
     17 C12        -0.4028   -8.6660   -0.0564 C.ar      1 <0>         0.1957
     18 F1         -1.7248   -8.8465   -0.2682 F         1 <0>        -0.1052
     19 F2          2.5991  -10.6444    0.4350 F         1 <0>        -0.1205
     20 C13        -0.0143    1.4740   -0.0126 C.ar      1 <0>        -0.0432
     21 C14         1.0356    2.1886    0.5671 C.ar      1 <0>        -0.0332
     22 C15         1.0172    3.5669    0.5568 C.ar      1 <0>        -0.1867
     23 C16        -0.0485    4.2446   -0.0206 C.ar      1 <0>         0.1229
     24 C17        -1.0973    3.5375   -0.5935 C.ar      1 <0>        -0.1295
     25 C18        -1.0841    2.1591   -0.5916 C.ar      1 <0>        -0.0836
     26 O2         -0.0653    5.6032   -0.0245 O.3       1 <0>        -0.3168
     27 C19         1.0452    6.2675    0.5818 C.3       1 <0>         0.4085
     28 F3          1.1323    5.8965    1.9279 F         1 <0>        -0.1970
     29 F4          2.2235    5.9042   -0.0791 F         1 <0>        -0.1966
     30 H1         -3.8075   -0.1173   -2.0697 H         1 <0>         0.0902
     31 H2         -2.5919   -1.4145   -2.3270 H         1 <0>         0.0746
     32 H3         -2.0927    0.3098   -2.3922 H         1 <0>         0.0694
     33 H4         -2.6417    0.5600    0.0231 H         1 <0>         0.1106
     34 H5         -3.1409   -1.1642    0.0884 H         1 <0>         0.1053
     35 H6          0.5756   -4.6742   -0.8169 H         1 <0>         0.1384
     36 H7          0.2843   -4.6719    0.9556 H         1 <0>         0.1383
     37 H8          1.9110   -6.1985    0.3147 H         1 <0>         0.1574
     38 H9          3.3735   -8.1558    0.5584 H         1 <0>         0.1544
     39 H10         0.0291  -10.7570    0.0119 H         1 <0>         0.1587
     40 H11         1.8628    1.6622    1.0199 H         1 <0>         0.1445
     41 H12         1.8310    4.1205    1.0014 H         1 <0>         0.1429
     42 H13        -1.9244    4.0683   -1.0415 H         1 <0>         0.1440
     43 H14        -1.9004    1.6099   -1.0371 H         1 <0>         0.1432
     44 H15         0.9243    7.3591    0.5202 H         1 <0>         0.1889
@<TRIPOS>BOND
     1    1    2 1
     2    1   30 1
     3    1   31 1
     4    1   32 1
     5    2    3 1
     6    2   33 1
     7    2   34 1
     8    3    7 1
     9    3    4 1
    10    4    5 2
    11    4   20 1
    12    5    6 1
    13    6    7 2
    14    7    8 1
    15    8    9 1
    16    9   10 1
    17    9   35 1
    18    9   36 1
    19   10   11 2
    20   10   12 1
    21   12   17 ar
    22   12   13 ar
    23   13   14 ar
    24   13   37 1
    25   14   15 ar
    26   14   38 1
    27   15   16 ar
    28   15   19 1
    29   16   17 ar
    30   16   39 1
    31   17   18 1
    32   20   25 ar
    33   20   21 ar
    34   21   22 ar
    35   21   40 1
    36   22   23 ar
    37   22   41 1
    38   23   24 ar
    39   23   26 1
    40   24   25 ar
    41   24   42 1
    42   25   43 1
    43   26   27 1
    44   27   28 1
    45   27   29 1
    46   27   44 1
@<TRIPOS>MOLECULE
ZINC38603952
   57    59     0     0     0
SMALL
USER_CHARGES

@<TRIPOS>ATOM
      1 C1          1.4197    2.1163    2.6006 C.3       1 <0>        -0.1537
      2 C2          0.9570    0.7560    2.0748 C.3       1 <0>        -0.1242
      3 C3          1.7905   -0.3514    2.7227 C.3       1 <0>        -0.1157
      4 C4          1.3279   -1.7118    2.1970 C.3       1 <0>        -0.1329
      5 C5          2.1613   -2.8192    2.8448 C.3       1 <0>         0.0983
      6 N1          1.7184   -4.1217    2.3414 N.am      1 <0>        -0.5541
      7 C6          0.7376   -4.7785    2.9867 C.2       1 <0>         0.5678
      8 O1          0.2300   -4.2874    3.9773 O.2       1 <0>        -0.4923
      9 C7          0.2755   -6.0879    2.4996 C.2       1 <0>        -0.2226
     10 C8         -0.7381   -6.7686    3.1641 C.2       1 <0>         0.1194
     11 C9         -0.8397   -8.1771    3.0483 C.ar      1 <0>        -0.1606
     12 C10         0.2924   -8.9851    3.2471 C.ar      1 <0>        -0.0308
     13 C11         0.1874  -10.3412    3.1339 C.ar      1 <0>        -0.1582
     14 C12        -1.0378  -10.9242    2.8217 C.ar      1 <0>         0.1716
     15 C13        -2.1636  -10.1296    2.6229 C.ar      1 <0>        -0.2158
     16 C14        -2.0743   -8.7726    2.7396 C.ar      1 <0>        -0.0324
     17 O2         -1.1349  -12.2722    2.7103 O.3       1 <0>        -0.3007
     18 C15        -2.4208  -12.8055    2.3879 C.3       1 <0>         0.1040
     19 C16        -2.3356  -14.3079    2.3069 C.ar      1 <0>        -0.1319
     20 C17        -1.1315  -14.9456    2.5391 C.ar      1 <0>        -0.0701
     21 C18        -1.0531  -16.3236    2.4649 C.ar      1 <0>        -0.1274
     22 C19        -2.1787  -17.0657    2.1584 C.ar      1 <0>        -0.0858
     23 C20        -3.3836  -16.4305    1.9264 C.ar      1 <0>        -0.1502
     24 C21        -3.4646  -15.0503    2.0056 C.ar      1 <0>         0.1063
     25 F1         -4.6432  -14.4284    1.7834 F         1 <0>        -0.1363
     26 C22         0.8760   -6.6448    1.3460 C.2       1 <0>         0.0971
     27 C23         1.8829   -5.9357    0.7111 C.2       1 <0>        -0.1491
     28 C24         2.2965   -4.6335    1.2410 C.2       1 <0>         0.5728
     29 O3          3.1777   -4.0090    0.6798 O.2       1 <0>        -0.4890
     30 C25         2.5127   -6.4701   -0.4587 C.1       1 <0>         0.2711
     31 N2          3.0123   -6.8941   -1.3866 N.1       1 <0>        -0.4015
     32 C26         0.4293   -7.9838    0.8181 C.3       1 <0>        -0.1557
     33 H1          2.4715    2.2622    2.3548 H         1 <0>         0.0543
     34 H2          0.8259    2.9053    2.1390 H         1 <0>         0.0539
     35 H3          1.2912    2.1506    3.6824 H         1 <0>         0.0542
     36 H4         -0.0948    0.6101    2.3206 H         1 <0>         0.0613
     37 H5          1.0855    0.7218    0.9930 H         1 <0>         0.0614
     38 H6          2.8424   -0.2055    2.4769 H         1 <0>         0.0663
     39 H7          1.6620   -0.3172    3.8046 H         1 <0>         0.0662
     40 H8          0.2760   -1.8577    2.4427 H         1 <0>         0.0686
     41 H9          1.4563   -1.7460    1.1151 H         1 <0>         0.0687
     42 H10         3.2132   -2.6733    2.5991 H         1 <0>         0.0994
     43 H11         2.0329   -2.7850    3.9267 H         1 <0>         0.0998
     44 H12        -1.4481   -6.2239    3.7687 H         1 <0>         0.1578
     45 H13         1.2436   -8.5341    3.4887 H         1 <0>         0.1414
     46 H14         1.0568  -10.9635    3.2865 H         1 <0>         0.1436
     47 H15        -3.1107  -10.5883    2.3803 H         1 <0>         0.1393
     48 H16        -2.9495   -8.1577    2.5902 H         1 <0>         0.1408
     49 H17        -3.1355  -12.5233    3.1610 H         1 <0>         0.0848
     50 H18        -2.7486  -12.4079    1.4274 H         1 <0>         0.0848
     51 H19        -0.2515  -14.3670    2.7782 H         1 <0>         0.1422
     52 H20        -0.1117  -16.8210    2.6462 H         1 <0>         0.1341
     53 H21        -2.1161  -18.1423    2.1001 H         1 <0>         0.1364
     54 H22        -4.2627  -17.0103    1.6867 H         1 <0>         0.1404
     55 H23        -0.5998   -8.1704    1.1250 H         1 <0>         0.1001
     56 H24         0.4896   -7.9837   -0.2702 H         1 <0>         0.0804
     57 H25         1.0751   -8.7657    1.2178 H         1 <0>         0.1027
@<TRIPOS>BOND
     1    1    2 1
     2    1   33 1
     3    1   34 1
     4    1   35 1
     5    2    3 1
     6    2   36 1
     7    2   37 1
     8    3    4 1
     9    3   38 1
    10    3   39 1
    11    4    5 1
    12    4   40 1
    13    4   41 1
    14    5    6 1
    15    5   42 1
    16    5   43 1
    17    6   28 am
    18    6    7 am
    19    7    8 2
    20    7    9 1
    21    9   10 2
    22    9   26 1
    23   10   11 1
    24   10   44 1
    25   11   16 ar
    26   11   12 ar
    27   12   13 ar
    28   12   45 1
    29   13   14 ar
    30   13   46 1
    31   14   15 ar
    32   14   17 1
    33   15   16 ar
    34   15   47 1
    35   16   48 1
    36   17   18 1
    37   18   19 1
    38   18   49 1
    39   18   50 1
    40   19   24 ar
    41   19   20 ar
    42   20   21 ar
    43   20   51 1
    44   21   22 ar
    45   21   52 1
    46   22   23 ar
    47   22   53 1
    48   23   24 ar
    49   23   54 1
    50   24   25 1
    51   26   27 2
    52   26   32 1
    53   27   28 1
    54   27   30 1
    55   28   29 2
    56   30   31 3
    57   32   55 1
    58   32   56 1
    59   32   57 1
@<TRIPOS>MOLECULE
ZINC59123561
   49    51     0     0     0
SMALL
USER_CHARGES

@<TRIPOS>ATOM
      1 C1          0.2868    1.4404   -0.3206 C.3       1 <0>        -0.1541
      2 C2          0.2494   -0.0891   -0.3225 C.3       1 <0>         0.0511
      3 O1         -1.0955   -0.5329   -0.1320 O.3       1 <0>        -0.3090
      4 C3         -1.3047   -1.8761   -0.1084 C.ar      1 <0>         0.1554
      5 C4         -0.2357   -2.7472   -0.2598 C.ar      1 <0>        -0.1957
      6 C5         -0.4477   -4.1114   -0.2359 C.ar      1 <0>        -0.0541
      7 C6         -1.7308   -4.6112   -0.0599 C.ar      1 <0>         0.0592
      8 C7         -2.8001   -3.7391    0.0920 C.ar      1 <0>        -0.0511
      9 C8         -2.5864   -2.3751    0.0728 C.ar      1 <0>        -0.1376
     10 N1         -1.9468   -5.9974   -0.0360 N.pl3     1 <0>        -0.4041
     11 C9         -2.6318   -6.7497   -0.9647 C.2       1 <0>         0.2267
     12 N2         -2.5920   -7.9966   -0.5549 N.2       1 <0>        -0.2444
     13 N3         -1.9395   -8.0760    0.5492 N.2       1 <0>        -0.2868
     14 C10        -1.5162   -6.8854    0.9112 C.2       1 <0>         0.1695
     15 S1         -0.5736   -6.5038    2.3502 S.3       1 <0>         0.0118
     16 C11        -0.3446   -8.1091    3.1632 C.3       1 <0>        -0.1030
     17 C12         0.4697   -7.9202    4.4447 C.3       1 <0>        -0.1044
     18 C13         0.6629   -9.2742    5.1305 C.3       1 <0>         0.0678
     19 O2          1.4234   -9.0977    6.3273 O.3       1 <0>        -0.3918
     20 C14         1.6619  -10.3083    7.0482 C.3       1 <0>         0.0314
     21 C15        -3.2875   -6.2483   -2.1906 C.ar      1 <0>        -0.0134
     22 C16        -2.6056   -5.3811   -3.0460 C.ar      1 <0>        -0.0780
     23 C17        -3.2233   -4.9166   -4.1885 C.ar      1 <0>        -0.1135
     24 C18        -4.5165   -5.3078   -4.4880 C.ar      1 <0>        -0.0878
     25 C19        -5.1989   -6.1667   -3.6456 C.ar      1 <0>        -0.1108
     26 C20        -4.5904   -6.6443   -2.5015 C.ar      1 <0>        -0.0001
     27 Cl1        -5.4450   -7.7284   -1.4489 Cl        1 <0>        -0.0423
     28 H1          1.3127    1.7789   -0.4660 H         1 <0>         0.0815
     29 H2         -0.3389    1.8202   -1.1282 H         1 <0>         0.0679
     30 H3         -0.0866    1.8118    0.6337 H         1 <0>         0.0683
     31 H4          0.6228   -0.4605   -1.2769 H         1 <0>         0.0657
     32 H5          0.8752   -0.4689    0.4851 H         1 <0>         0.0666
     33 H6          0.7625   -2.3582   -0.3968 H         1 <0>         0.1418
     34 H7          0.3845   -4.7895   -0.3545 H         1 <0>         0.1354
     35 H8         -3.7986   -4.1275    0.2287 H         1 <0>         0.1361
     36 H9         -3.4177   -1.6966    0.1951 H         1 <0>         0.1449
     37 H10        -1.3177   -8.5333    3.4104 H         1 <0>         0.1001
     38 H11         0.1861   -8.7841    2.4917 H         1 <0>         0.1000
     39 H12         1.4429   -7.4959    4.1976 H         1 <0>         0.0841
     40 H13        -0.0609   -7.2452    5.1162 H         1 <0>         0.0844
     41 H14        -0.3103   -9.6984    5.3776 H         1 <0>         0.0549
     42 H15         1.1936   -9.9491    4.4590 H         1 <0>         0.0548
     43 H16         2.2449  -10.0896    7.9429 H         1 <0>         0.0883
     44 H17         0.7095  -10.7540    7.3351 H         1 <0>         0.0431
     45 H18         2.2133  -11.0047    6.4165 H         1 <0>         0.0430
     46 H19        -1.5965   -5.0742   -2.8135 H         1 <0>         0.1298
     47 H20        -2.6964   -4.2457   -4.8508 H         1 <0>         0.1365
     48 H21        -4.9953   -4.9403   -5.3837 H         1 <0>         0.1391
     49 H22        -6.2079   -6.4680   -3.8852 H         1 <0>         0.1426
@<TRIPOS>BOND
     1    1    2 1
     2    1   28 1
     3    1   29 1
     4    1   30 1
     5    2    3 1
     6    2   31 1
     7    2   32 1
     8    3    4 1
     9    4    9 ar
    10    4    5 ar
    11    5    6 ar
    12    5   33 1
    13    6    7 ar
    14    6   34 1
    15    7    8 ar
    16    7   10 1
    17    8    9 ar
    18    8   35 1
    19    9   36 1
    20   10   14 1
    21   10   11 1
    22   11   12 2
    23   11   21 1
    24   12   13 1
    25   13   14 2
    26   14   15 1
    27   15   16 1
    28   16   17 1
    29   16   37 1
    30   16   38 1
    31   17   18 1
    32   17   39 1
    33   17   40 1
    34   18   19 1
    35   18   41 1
    36   18   42 1
    37   19   20 1
    38   20   43 1
    39   20   44 1
    40   20   45 1
    41   21   26 ar
    42   21   22 ar
    43   22   23 ar
    44   22   46 1
    45   23   24 ar
    46   23   47 1
    47   24   25 ar
    48   24   48 1
    49   25   26 ar
    50   25   49 1
    51   26   27 1
@<TRIPOS>MOLECULE
ZINC01974622
   62    64     0     0     0
SMALL
USER_CHARGES
ethyl 2-[[(E)-3-(4-butoxyphenyl)prop-2-enoyl]amino]-4-(4-chlorophenyl)-5-methyl-thiophene-3-carboxylate
@<TRIPOS>ATOM
      1 C1          2.2047    0.0945  -14.5338 C.3       1 <0>        -0.1547
      2 C2          1.9175    0.2420  -13.0383 C.3       1 <0>        -0.1224
      3 C3          0.5925    0.9819  -12.8439 C.3       1 <0>        -0.1216
      4 C4          0.3054    1.1294  -11.3483 C.3       1 <0>         0.0546
      5 O1         -0.9322    1.8204  -11.1668 O.3       1 <0>        -0.3107
      6 C5         -1.3363    2.0353   -9.8889 C.ar      1 <0>         0.1529
      7 C6         -2.5312    2.7019   -9.6430 C.ar      1 <0>        -0.1570
      8 C7         -2.9454    2.9227   -8.3489 C.ar      1 <0>        -0.0452
      9 C8         -2.1610    2.4748   -7.2796 C.ar      1 <0>        -0.1288
     10 C9         -0.9558    1.8092   -7.5325 C.ar      1 <0>        -0.0518
     11 C10        -0.5535    1.5884   -8.8304 C.ar      1 <0>        -0.2148
     12 C11        -2.5983    2.7079   -5.8958 C.2       1 <0>         0.0173
     13 C12        -1.8399    2.2748   -4.8660 C.2       1 <0>        -0.2391
     14 C13        -2.2748    2.5066   -3.4898 C.2       1 <0>         0.5517
     15 O2         -3.3208    3.0900   -3.2722 O.2       1 <0>        -0.5079
     16 N1         -1.5178    2.0743   -2.4620 N.am      1 <0>        -0.6309
     17 C14        -1.9296    2.2937   -1.1590 C.2       1 <0>         0.0943
     18 C15        -1.2908    1.9263    0.0186 C.2       1 <0>        -0.2081
     19 C16        -1.9492    2.2912    1.2588 C.2       1 <0>        -0.0385
     20 C17        -3.1297    2.9524    1.1517 C.2       1 <0>        -0.1875
     21 S1         -3.3648    3.0893   -0.6079 S.3       1 <0>         0.2504
     22 C18        -4.0261    3.4501    2.2561 C.3       1 <0>        -0.0690
     23 C19        -1.3613    1.9586    2.5783 C.ar      1 <0>        -0.0311
     24 C20        -1.2265    0.6269    2.9685 C.ar      1 <0>        -0.0882
     25 C21        -0.6733    0.3227    4.1954 C.ar      1 <0>        -0.1085
     26 C22        -0.2633    1.3374    5.0434 C.ar      1 <0>        -0.0310
     27 C23        -0.3998    2.6616    4.6630 C.ar      1 <0>        -0.1097
     28 C24        -0.9464    2.9766    3.4360 C.ar      1 <0>        -0.0853
     29 Cl1         0.4247    0.9479    6.5889 Cl        1 <0>        -0.0684
     30 C25        -0.0144    1.2124    0.0087 C.2       1 <0>         0.5351
     31 O3          0.0021   -0.0041    0.0020 O.2       1 <0>        -0.4917
     32 O4          1.1446    1.9027    0.0013 O.3       1 <0>        -0.3436
     33 C26         2.3534    1.1408   -0.0143 C.3       1 <0>         0.0554
     34 C27         3.5540    2.0893   -0.0207 C.3       1 <0>        -0.1541
     35 H1          3.1573   -0.4375  -14.6735 H         1 <0>         0.0587
     36 H2          2.2703    1.0912  -14.9946 H         1 <0>         0.0570
     37 H3          1.3930   -0.4763  -15.0085 H         1 <0>         0.0570
     38 H4          1.8519   -0.7547  -12.5775 H         1 <0>         0.0656
     39 H5          2.7292    0.8127  -12.5636 H         1 <0>         0.0656
     40 H6          0.6581    1.9786  -13.3047 H         1 <0>         0.0759
     41 H7         -0.2193    0.4112  -13.3186 H         1 <0>         0.0759
     42 H8          0.2399    0.1327  -10.8875 H         1 <0>         0.0656
     43 H9          1.1171    1.7002  -10.8736 H         1 <0>         0.0656
     44 H10        -3.1359    3.0468  -10.4688 H         1 <0>         0.1375
     45 H11        -3.8737    3.4410   -8.1590 H         1 <0>         0.1384
     46 H12        -0.3446    1.4659   -6.7109 H         1 <0>         0.1309
     47 H13         0.3741    1.0713   -9.0267 H         1 <0>         0.1329
     48 H14        -3.5434    3.2352   -5.6991 H         1 <0>         0.1435
     49 H15        -0.8948    1.7475   -5.0627 H         1 <0>         0.1367
     50 H16        -0.5726    1.5471   -2.6587 H         1 <0>         0.4458
     51 H17        -4.9063    3.9444    1.8192 H         1 <0>         0.0761
     52 H18        -3.4744    4.1683    2.8805 H         1 <0>         0.0815
     53 H19        -4.3518    2.6009    2.8747 H         1 <0>         0.0814
     54 H20        -1.5507   -0.1652    2.3099 H         1 <0>         0.1343
     55 H21        -0.5643   -0.7087    4.4967 H         1 <0>         0.1356
     56 H22        -0.0781    3.4493    5.3281 H         1 <0>         0.1369
     57 H23        -1.0531    4.0099    3.1405 H         1 <0>         0.1351
     58 H24         2.3956    0.5018    0.8801 H         1 <0>         0.0693
     59 H25         2.3785    0.5114   -0.9161 H         1 <0>         0.0681
     60 H26         4.4845    1.5028   -0.0327 H         1 <0>         0.0817
     61 H27         3.5288    2.7187    0.8811 H         1 <0>         0.0683
     62 H28         3.5117    2.7283   -0.9151 H         1 <0>         0.0671
@<TRIPOS>BOND
     1    1    2 1
     2    1   35 1
     3    1   36 1
     4    1   37 1
     5    2    3 1
     6    2   38 1
     7    2   39 1
     8    3    4 1
     9    3   40 1
    10    3   41 1
    11    4    5 1
    12    4   42 1
    13    4   43 1
    14    5    6 1
    15    6   11 ar
    16    6    7 ar
    17    7    8 ar
    18    7   44 1
    19    8    9 ar
    20    8   45 1
    21    9   10 ar
    22    9   12 1
    23   10   11 ar
    24   10   46 1
    25   11   47 1
    26   12   13 2
    27   12   48 1
    28   13   14 1
    29   13   49 1
    30   14   15 2
    31   14   16 am
    32   16   17 1
    33   16   50 1
    34   17   21 1
    35   17   18 2
    36   18   19 1
    37   18   30 1
    38   19   20 2
    39   19   23 1
    40   20   21 1
    41   20   22 1
    42   22   51 1
    43   22   52 1
    44   22   53 1
    45   23   28 ar
    46   23   24 ar
    47   24   25 ar
    48   24   54 1
    49   25   26 ar
    50   25   55 1
    51   26   27 ar
    52   26   29 1
    53   27   28 ar
    54   27   56 1
    55   28   57 1
    56   30   31 2
    57   30   32 1
    58   32   33 1
    59   33   34 1
    60   33   58 1
    61   33   59 1
    62   34   60 1
    63   34   61 1
    64   34   62 1
@<TRIPOS>MOLECULE
ZINC36507788
   80    81     0     0     0
SMALL
USER_CHARGES

@<TRIPOS>ATOM
      1 C1          1.7994    2.5320   -0.3846 C.3       1 <0>        -0.1538
      2 C2          1.5667    1.0263   -0.5248 C.3       1 <0>        -0.1250
      3 C3          1.8090    0.3450    0.8235 C.3       1 <0>        -0.1174
      4 C4          1.5763   -1.1606    0.6833 C.3       1 <0>        -0.1151
      5 C5          1.8186   -1.8419    2.0317 C.3       1 <0>        -0.1478
      6 C6          1.4668   -3.3270    1.9233 C.3       1 <0>         0.1158
      7 N1          1.5927   -3.9560    3.2403 N.am      1 <0>        -0.5706
      8 C7          0.4191   -4.0791    4.1085 C.3       1 <0>         0.1562
      9 H1          0.7053   -4.5693    5.0390 H         1 <0>         0.1235
     10 C8         -0.1282   -2.7079    4.4107 C.2       1 <0>        -0.1784
     11 C9         -0.1055   -2.2495    5.6377 C.2       1 <0>        -0.1167
     12 C10        -0.6528   -0.8783    5.9400 C.3       1 <0>        -0.0942
     13 C11        -1.7149   -0.9833    7.0362 C.3       1 <0>        -0.1198
     14 C12        -2.2705    0.4088    7.3430 C.3       1 <0>        -0.1546
     15 C13        -0.6366   -4.8992    3.4127 C.2       1 <0>         0.5117
     16 O1         -0.4291   -5.3376    2.3011 O.2       1 <0>        -0.5100
     17 N2         -1.8114   -5.1453    4.0257 N.am      1 <0>        -0.7197
     18 C14        -2.8376   -5.9426    3.3494 C.3       1 <0>         0.1723
     19 C15        -2.2820   -7.3347    3.0425 C.3       1 <0>        -0.1640
     20 C16        -4.0633   -6.0711    4.2560 C.3       1 <0>        -0.1567
     21 C17        -3.2394   -5.2544    2.0432 C.3       1 <0>        -0.1618
     22 C18         2.7882   -4.4215    3.6533 C.2       1 <0>         0.5810
     23 O2          2.9119   -4.8665    4.7786 O.2       1 <0>        -0.5403
     24 C19         3.9442   -4.3914    2.7427 C.2       1 <0>        -0.1164
     25 C20         4.0445   -5.3055    1.7409 C.2       1 <0>        -0.0474
     26 C21         3.0946   -6.4241    1.6692 C.ar      1 <0>        -0.0754
     27 C22         2.6860   -6.9216    0.4264 C.ar      1 <0>        -0.0935
     28 C23         1.7948   -7.9717    0.3680 C.ar      1 <0>        -0.1178
     29 C24         1.3042   -8.5339    1.5339 C.ar      1 <0>        -0.1011
     30 C25         1.7027   -8.0475    2.7670 C.ar      1 <0>        -0.1116
     31 C26         2.5978   -7.0017    2.8433 C.ar      1 <0>        -0.1057
     32 C27         4.9979   -3.3658    2.9175 C.ar      1 <0>        -0.0441
     33 C28         5.8154   -3.3871    4.0477 C.ar      1 <0>        -0.0950
     34 C29         6.7954   -2.4287    4.2048 C.ar      1 <0>        -0.1184
     35 C30         6.9682   -1.4479    3.2444 C.ar      1 <0>        -0.1144
     36 C31         6.1603   -1.4211    2.1216 C.ar      1 <0>        -0.1196
     37 C32         5.1809   -2.3777    1.9499 C.ar      1 <0>        -0.1030
     38 H2          2.8259    2.7128   -0.0654 H         1 <0>         0.0533
     39 H3          1.6268    3.0173   -1.3452 H         1 <0>         0.0532
     40 H4          1.1115    2.9385    0.3567 H         1 <0>         0.0526
     41 H5          0.5403    0.8455   -0.8440 H         1 <0>         0.0599
     42 H6          2.2546    0.6198   -1.2661 H         1 <0>         0.0607
     43 H7          2.8355    0.5258    1.1427 H         1 <0>         0.0614
     44 H8          1.1211    0.7516    1.5649 H         1 <0>         0.0595
     45 H9          0.5498   -1.3415    0.3642 H         1 <0>         0.0618
     46 H10         2.2642   -1.5672   -0.0580 H         1 <0>         0.0622
     47 H11         2.8675   -1.7362    2.3088 H         1 <0>         0.0705
     48 H12         1.1930   -1.3749    2.7924 H         1 <0>         0.0682
     49 H13         0.4423   -3.4326    1.5666 H         1 <0>         0.0882
     50 H14         2.1472   -3.8113    1.2228 H         1 <0>         0.0792
     51 H15        -0.5391   -2.1032    3.6158 H         1 <0>         0.1184
     52 H16         0.3054   -2.8542    6.4326 H         1 <0>         0.1140
     53 H17         0.1561   -0.2308    6.2786 H         1 <0>         0.0760
     54 H18        -1.1007   -0.4591    5.0390 H         1 <0>         0.0678
     55 H19        -2.5237   -1.6308    6.6975 H         1 <0>         0.0624
     56 H20        -1.2670   -1.4025    7.9371 H         1 <0>         0.0639
     57 H21        -2.7185    0.8279    6.4421 H         1 <0>         0.0539
     58 H22        -3.0273    0.3339    8.1240 H         1 <0>         0.0556
     59 H23        -1.4617    1.0563    7.6817 H         1 <0>         0.0547
     60 H24        -1.9774   -4.7947    4.9148 H         1 <0>         0.3985
     61 H25        -1.9958   -7.8249    3.9730 H         1 <0>         0.0518
     62 H26        -3.0456   -7.9278    2.5393 H         1 <0>         0.0607
     63 H27        -1.4088   -7.2431    2.3966 H         1 <0>         0.0818
     64 H28        -4.4592   -5.0793    4.4747 H         1 <0>         0.0617
     65 H29        -4.8269   -6.6642    3.7528 H         1 <0>         0.0735
     66 H30        -3.7771   -6.5613    5.1866 H         1 <0>         0.0616
     67 H31        -2.3661   -5.1629    1.3973 H         1 <0>         0.0780
     68 H32        -4.0029   -5.8476    1.5400 H         1 <0>         0.0614
     69 H33        -3.6352   -4.2627    2.2619 H         1 <0>         0.0524
     70 H34         4.8224   -5.2092    0.9980 H         1 <0>         0.1369
     71 H35         3.0676   -6.4839   -0.4842 H         1 <0>         0.1216
     72 H36         1.4782   -8.3567   -0.5902 H         1 <0>         0.1206
     73 H37         0.6062   -9.3564    1.4812 H         1 <0>         0.1172
     74 H38         1.3150   -8.4914    3.6720 H         1 <0>         0.1154
     75 H39         2.9115   -6.6265    3.8062 H         1 <0>         0.1354
     76 H40         5.6812   -4.1520    4.7982 H         1 <0>         0.1271
     77 H41         7.4287   -2.4439    5.0795 H         1 <0>         0.1246
     78 H42         7.7367   -0.6999    3.3719 H         1 <0>         0.1226
     79 H43         6.2998   -0.6528    1.3755 H         1 <0>         0.1241
     80 H44         4.5540   -2.3587    1.0707 H         1 <0>         0.1243
@<TRIPOS>BOND
     1    1    2 1
     2    1   38 1
     3    1   39 1
     4    1   40 1
     5    2    3 1
     6    2   41 1
     7    2   42 1
     8    3    4 1
     9    3   43 1
    10    3   44 1
    11    4    5 1
    12    4   45 1
    13    4   46 1
    14    5    6 1
    15    5   47 1
    16    5   48 1
    17    6    7 1
    18    6   49 1
    19    6   50 1
    20    7    8 1
    21    7   22 am
    22    8    9 1
    23    8   10 1
    24    8   15 1
    25   10   11 2
    26   10   51 1
    27   11   12 1
    28   11   52 1
    29   12   13 1
    30   12   53 1
    31   12   54 1
    32   13   14 1
    33   13   55 1
    34   13   56 1
    35   14   57 1
    36   14   58 1
    37   14   59 1
    38   15   16 2
    39   15   17 am
    40   17   18 1
    41   17   60 1
    42   18   19 1
    43   18   20 1
    44   18   21 1
    45   19   61 1
    46   19   62 1
    47   19   63 1
    48   20   64 1
    49   20   65 1
    50   20   66 1
    51   21   67 1
    52   21   68 1
    53   21   69 1
    54   22   23 2
    55   22   24 1
    56   24   25 2
    57   24   32 1
    58   25   26 1
    59   25   70 1
    60   26   31 ar
    61   26   27 ar
    62   27   28 ar
    63   27   71 1
    64   28   29 ar
    65   28   72 1
    66   29   30 ar
    67   29   73 1
    68   30   31 ar
    69   30   74 1
    70   31   75 1
    71   32   37 ar
    72   32   33 ar
    73   33   34 ar
    74   33   76 1
    75   34   35 ar
    76   34   77 1
    77   35   36 ar
    78   35   78 1
    79   36   37 ar
    80   36   79 1
    81   37   80 1
@<TRIPOS>MOLECULE
ZINC36567439
   74    74     0     0     0
SMALL
USER_CHARGES

@<TRIPOS>ATOM
      1 C1         -6.3965    0.7421    3.2249 C.3       1 <0>        -0.1544
      2 C2         -5.2008    0.2092    2.4329 C.3       1 <0>        -0.1231
      3 C3         -5.6217   -1.0364    1.6504 C.3       1 <0>        -0.1195
      4 C4         -4.4260   -1.5693    0.8584 C.3       1 <0>        -0.1149
      5 C5         -4.8468   -2.8148    0.0758 C.3       1 <0>        -0.1434
      6 C6         -3.6511   -3.3477   -0.7161 C.3       1 <0>         0.1353
      7 H1         -3.2495   -2.5538   -1.3459 H         1 <0>         0.1063
      8 C7         -4.0945   -4.4993   -1.5811 C.2       1 <0>         0.5003
      9 O1         -3.5958   -5.5951   -1.4343 O.2       1 <0>        -0.5152
     10 N1         -5.0452   -4.3116   -2.5178 N.am      1 <0>        -0.7263
     11 C8         -5.4762   -5.4311   -3.3587 C.3       1 <0>         0.1753
     12 C9         -4.3316   -5.8418   -4.2872 C.3       1 <0>        -0.1588
     13 C10        -5.8632   -6.6159   -2.4714 C.3       1 <0>        -0.1585
     14 C11        -6.6840   -5.0048   -4.1957 C.3       1 <0>        -0.1152
     15 C12        -7.4298   -3.8782   -3.4779 C.3       1 <0>        -0.0709
     16 C13        -6.6707   -2.5632   -3.6660 C.3       1 <0>        -0.1630
     17 C14        -8.8366   -3.7433   -4.0642 C.3       1 <0>        -0.1409
     18 C15        -7.5281   -4.2014   -1.9856 C.3       1 <0>        -0.1876
     19 N2         -2.6149   -3.8054    0.2129 N.am      1 <0>        -0.5960
     20 C16        -1.2470   -3.2946    0.0939 C.3       1 <0>         0.1082
     21 C17        -1.0647   -2.1012    1.0338 C.3       1 <0>        -0.1480
     22 C18         0.3476   -1.5354    0.8717 C.3       1 <0>        -0.1519
     23 C19        -2.9200   -4.6964    1.1770 C.2       1 <0>         0.5307
     24 O2         -4.0525   -5.1192    1.2754 O.2       1 <0>        -0.5103
     25 C20        -1.8541   -5.1672    2.1326 C.3       1 <0>        -0.1039
     26 C21        -2.4505   -6.1524    3.1045 C.ar      1 <0>        -0.0493
     27 C22        -2.9997   -5.7056    4.2919 C.ar      1 <0>        -0.0993
     28 C23        -3.5471   -6.6088    5.1834 C.ar      1 <0>        -0.0897
     29 C24        -3.5455   -7.9600    4.8874 C.ar      1 <0>        -0.0890
     30 C25        -2.9958   -8.4067    3.6992 C.ar      1 <0>        -0.0886
     31 C26        -2.4533   -7.5022    2.8059 C.ar      1 <0>        -0.0951
     32 Br1        -4.2938   -9.1963    6.1071 Br        1 <0>        -0.0531
     33 H2         -6.0967    1.6294    3.7824 H         1 <0>         0.0534
     34 H3         -7.2020    0.9999    2.5373 H         1 <0>         0.0533
     35 H4         -6.7427   -0.0235    3.9193 H         1 <0>         0.0536
     36 H5         -4.8546    0.9748    1.7386 H         1 <0>         0.0598
     37 H6         -4.3954   -0.0487    3.1206 H         1 <0>         0.0593
     38 H7         -5.9679   -1.8020    2.3447 H         1 <0>         0.0623
     39 H8         -6.4271   -0.7785    0.9627 H         1 <0>         0.0607
     40 H9         -4.0798   -0.8037    0.1640 H         1 <0>         0.0592
     41 H10        -3.6205   -1.8271    1.5460 H         1 <0>         0.0667
     42 H11        -5.1930   -3.5804    0.7702 H         1 <0>         0.1054
     43 H12        -5.6523   -2.5570   -0.6118 H         1 <0>         0.0703
     44 H13        -5.4440   -3.4352   -2.6352 H         1 <0>         0.4064
     45 H14        -3.4440   -6.0623   -3.6942 H         1 <0>         0.0694
     46 H15        -4.6214   -6.7285   -4.8510 H         1 <0>         0.0640
     47 H16        -4.1140   -5.0271   -4.9779 H         1 <0>         0.0528
     48 H17        -6.3817   -6.2516   -1.5845 H         1 <0>         0.0640
     49 H18        -6.5196   -7.2863   -3.0263 H         1 <0>         0.0560
     50 H19        -4.9641   -7.1540   -2.1712 H         1 <0>         0.0736
     51 H20        -6.3449   -4.6530   -5.1700 H         1 <0>         0.0713
     52 H21        -7.3521   -5.8556   -4.3290 H         1 <0>         0.0789
     53 H22        -5.8706   -2.7063   -4.3923 H         1 <0>         0.0644
     54 H23        -7.3561   -1.7964   -4.0269 H         1 <0>         0.0693
     55 H24        -6.2444   -2.2502   -2.7129 H         1 <0>         0.0601
     56 H25        -9.3774   -4.6801   -3.9302 H         1 <0>         0.0558
     57 H26        -9.3679   -2.9407   -3.5529 H         1 <0>         0.0566
     58 H27        -8.7665   -3.5131   -5.1273 H         1 <0>         0.0554
     59 H28        -6.5318   -4.3998   -1.5905 H         1 <0>         0.0997
     60 H29        -7.9659   -3.3538   -1.4584 H         1 <0>         0.0499
     61 H30        -8.1565   -5.0808   -1.8450 H         1 <0>         0.0549
     62 H31        -0.5411   -4.0803    0.3631 H         1 <0>         0.0816
     63 H32        -1.0650   -2.9791   -0.9335 H         1 <0>         0.0808
     64 H33        -1.7952   -1.3304    0.7882 H         1 <0>         0.0720
     65 H34        -1.2104   -2.4248    2.0644 H         1 <0>         0.0658
     66 H35         1.0782   -2.3062    1.1173 H         1 <0>         0.0573
     67 H36         0.4934   -1.2118   -0.1589 H         1 <0>         0.0566
     68 H37         0.4775   -0.6852    1.5413 H         1 <0>         0.0593
     69 H38        -1.0518   -5.6486    1.5734 H         1 <0>         0.1046
     70 H39        -1.4541   -4.3136    2.6799 H         1 <0>         0.1037
     71 H40        -3.0006   -4.6506    4.5230 H         1 <0>         0.1277
     72 H41        -3.9759   -6.2597    6.1112 H         1 <0>         0.1320
     73 H42        -2.9944   -9.4616    3.4677 H         1 <0>         0.1322
     74 H43        -2.0279   -7.8504    1.8763 H         1 <0>         0.1292
@<TRIPOS>BOND
     1    1    2 1
     2    1   33 1
     3    1   34 1
     4    1   35 1
     5    2    3 1
     6    2   36 1
     7    2   37 1
     8    3    4 1
     9    3   38 1
    10    3   39 1
    11    4    5 1
    12    4   40 1
    13    4   41 1
    14    5    6 1
    15    5   42 1
    16    5   43 1
    17    6    7 1
    18    6    8 1
    19    6   19 1
    20    8    9 2
    21    8   10 am
    22   10   11 1
    23   10   44 1
    24   11   12 1
    25   11   13 1
    26   11   14 1
    27   12   45 1
    28   12   46 1
    29   12   47 1
    30   13   48 1
    31   13   49 1
    32   13   50 1
    33   14   15 1
    34   14   51 1
    35   14   52 1
    36   15   16 1
    37   15   17 1
    38   15   18 1
    39   16   53 1
    40   16   54 1
    41   16   55 1
    42   17   56 1
    43   17   57 1
    44   17   58 1
    45   18   59 1
    46   18   60 1
    47   18   61 1
    48   19   20 1
    49   19   23 am
    50   20   21 1
    51   20   62 1
    52   20   63 1
    53   21   22 1
    54   21   64 1
    55   21   65 1
    56   22   66 1
    57   22   67 1
    58   22   68 1
    59   23   24 2
    60   23   25 1
    61   25   26 1
    62   25   69 1
    63   25   70 1
    64   26   31 ar
    65   26   27 ar
    66   27   28 ar
    67   27   71 1
    68   28   29 ar
    69   28   72 1
    70   29   30 ar
    71   29   32 1
    72   30   31 ar
    73   30   73 1
    74   31   74 1
@<TRIPOS>MOLECULE
ZINC40208093
   67    70     0     0     0
SMALL
USER_CHARGES

@<TRIPOS>ATOM
      1 C1         -0.0184    1.5028    0.0103 C.3       1 <0>        -0.1182
      2 C2          0.0021   -0.0041    0.0020 C.ar      1 <0>        -0.0499
      3 C3          0.0057   -0.6883   -1.1997 C.ar      1 <0>        -0.1540
      4 C4          0.0244   -2.0706   -1.2107 C.ar      1 <0>        -0.0819
      5 C5          0.0391   -2.7719   -0.0203 C.ar      1 <0>        -0.2119
      6 C6          0.0355   -2.0879    1.1864 C.ar      1 <0>         0.1313
      7 C7          0.0229   -0.7004    1.1947 C.ar      1 <0>        -0.1185
      8 C8          0.0256    0.0460    2.5038 C.3       1 <0>        -0.1066
      9 O1          0.0500   -2.7755    2.3585 O.3       1 <0>        -0.3119
     10 C9          0.0686   -4.2018    2.2738 C.3       1 <0>         0.0606
     11 C10         0.0829   -4.7963    3.6835 C.3       1 <0>        -0.1151
     12 C11         0.1027   -6.3235    3.5928 C.3       1 <0>        -0.1348
     13 C12         0.1171   -6.9180    5.0025 C.3       1 <0>         0.1110
     14 N1          0.1361   -8.3803    4.9156 N.pl3     1 <0>        -0.4868
     15 C13        -0.9651   -9.2114    4.8662 C.ar      1 <0>         0.0488
     16 C14        -2.3372   -9.0003    4.8786 C.ar      1 <0>        -0.1119
     17 C15        -3.1945  -10.0779    4.8145 C.ar      1 <0>        -0.1002
     18 C16        -2.6951  -11.3704    4.7383 C.ar      1 <0>        -0.1276
     19 C17        -1.3481  -11.5973    4.7254 C.ar      1 <0>        -0.0637
     20 C18        -0.4599  -10.5202    4.7885 C.ar      1 <0>         0.0459
     21 N2          0.8944  -10.4224    4.7944 N.2       1 <0>        -0.4872
     22 C19         1.2422   -9.1705    4.8629 C.2       1 <0>         0.2846
     23 C20         2.6632   -8.6692    4.8842 C.3       1 <0>        -0.0402
     24 C21         3.1523   -8.5842    6.3314 C.3       1 <0>        -0.1274
     25 C22         4.5950   -8.0752    6.3531 C.3       1 <0>         0.1200
     26 N3          5.0633   -7.9939    7.7388 N.am      1 <0>        -0.7268
     27 C23         6.3142   -7.5675    8.0035 C.2       1 <0>         0.5602
     28 O2          7.0538   -7.2505    7.0923 O.2       1 <0>        -0.5291
     29 C24         6.7867   -7.4854    9.4014 C.ar      1 <0>        -0.1337
     30 C25         5.9415   -7.8543   10.4496 C.ar      1 <0>        -0.0741
     31 C26         6.3881   -7.7760   11.7518 C.ar      1 <0>        -0.1175
     32 C27         7.6722   -7.3320   12.0210 C.ar      1 <0>        -0.0106
     33 C28         8.5153   -6.9647   10.9853 C.ar      1 <0>        -0.1168
     34 C29         8.0819   -7.0441    9.6786 C.ar      1 <0>        -0.0455
     35 Cl1         8.2270   -7.2351   13.6631 Cl        1 <0>        -0.0579
     36 H1          1.0042    1.8801    0.0026 H         1 <0>         0.0741
     37 H2         -0.5455    1.8639   -0.8728 H         1 <0>         0.0695
     38 H3         -0.5286    1.8543    0.9071 H         1 <0>         0.0712
     39 H4         -0.0065   -0.1419   -2.1312 H         1 <0>         0.1240
     40 H5          0.0272   -2.6027   -2.1505 H         1 <0>         0.1246
     41 H6          0.0530   -3.8518   -0.0294 H         1 <0>         0.1255
     42 H7         -1.0013    0.2123    2.8294 H         1 <0>         0.0675
     43 H8          0.5545   -0.5403    3.2552 H         1 <0>         0.0690
     44 H9          0.5255    1.0058    2.3738 H         1 <0>         0.0673
     45 H10        -0.8194   -4.5459    1.7434 H         1 <0>         0.0627
     46 H11         0.9604   -4.5222    1.7353 H         1 <0>         0.0632
     47 H12         0.9708   -4.4523    4.2139 H         1 <0>         0.0800
     48 H13        -0.8090   -4.4759    4.2220 H         1 <0>         0.0792
     49 H14        -0.7852   -6.6676    3.0624 H         1 <0>         0.0752
     50 H15         0.9946   -6.6439    3.0543 H         1 <0>         0.0753
     51 H16         1.0050   -6.5739    5.5329 H         1 <0>         0.0968
     52 H17        -0.7748   -6.5976    5.5410 H         1 <0>         0.0938
     53 H18        -2.7311   -7.9964    4.9385 H         1 <0>         0.1206
     54 H19        -4.2621   -9.9152    4.8241 H         1 <0>         0.1302
     55 H20        -3.3783  -12.2054    4.6890 H         1 <0>         0.1299
     56 H21        -0.9702  -12.6073    4.6665 H         1 <0>         0.1290
     57 H22         3.2991   -9.3558    4.3255 H         1 <0>         0.1073
     58 H23         2.7065   -7.6805    4.4274 H         1 <0>         0.0888
     59 H24         2.5163   -7.8976    6.8902 H         1 <0>         0.0708
     60 H25         3.1089   -9.5729    6.7883 H         1 <0>         0.0828
     61 H26         5.2309   -8.7619    5.7944 H         1 <0>         0.0767
     62 H27         4.6384   -7.0865    5.8963 H         1 <0>         0.0735
     63 H28         4.4732   -8.2468    8.4659 H         1 <0>         0.4010
     64 H29         4.9398   -8.2000   10.2409 H         1 <0>         0.1351
     65 H30         5.7352   -8.0611   12.5636 H         1 <0>         0.1417
     66 H31         9.5154   -6.6189   11.2012 H         1 <0>         0.1433
     67 H32         8.7416   -6.7614    8.8715 H         1 <0>         0.1476
@<TRIPOS>BOND
     1    1    2 1
     2    1   36 1
     3    1   37 1
     4    1   38 1
     5    2    7 ar
     6    2    3 ar
     7    3    4 ar
     8    3   39 1
     9    4    5 ar
    10    4   40 1
    11    5    6 ar
    12    5   41 1
    13    6    7 ar
    14    6    9 1
    15    7    8 1
    16    8   42 1
    17    8   43 1
    18    8   44 1
    19    9   10 1
    20   10   11 1
    21   10   45 1
    22   10   46 1
    23   11   12 1
    24   11   47 1
    25   11   48 1
    26   12   13 1
    27   12   49 1
    28   12   50 1
    29   13   14 1
    30   13   51 1
    31   13   52 1
    32   14   22 1
    33   14   15 1
    34   15   20 ar
    35   15   16 ar
    36   16   17 ar
    37   16   53 1
    38   17   18 ar
    39   17   54 1
    40   18   19 ar
    41   18   55 1
    42   19   20 ar
    43   19   56 1
    44   20   21 1
    45   21   22 2
    46   22   23 1
    47   23   24 1
    48   23   57 1
    49   23   58 1
    50   24   25 1
    51   24   59 1
    52   24   60 1
    53   25   26 1
    54   25   61 1
    55   25   62 1
    56   26   27 am
    57   26   63 1
    58   27   28 2
    59   27   29 1
    60   29   34 ar
    61   29   30 ar
    62   30   31 ar
    63   30   64 1
    64   31   32 ar
    65   31   65 1
    66   32   33 ar
    67   32   35 1
    68   33   34 ar
    69   33   66 1
    70   34   67 1
@<TRIPOS>MOLECULE
ZINC40942716
   63    64     0     0     0
SMALL
USER_CHARGES

@<TRIPOS>ATOM
      1 C1         -4.1823    1.5219    1.9679 C.3       1 <0>        -0.1474
      2 C2         -4.3863    0.0163    1.7882 C.3       1 <0>        -0.0951
      3 C3         -5.7891   -0.2461    1.2368 C.3       1 <0>        -0.1493
      4 C4         -3.3436   -0.5264    0.8088 C.3       1 <0>         0.0696
      5 O1         -3.4589   -1.9486    0.7300 O.3       1 <0>        -0.3457
      6 C5         -2.6062   -2.5866   -0.0955 C.2       1 <0>         0.5109
      7 O2         -1.7871   -1.9529   -0.7310 O.2       1 <0>        -0.5068
      8 C6         -2.6670   -4.0541   -0.2277 C.ar      1 <0>        -0.1456
      9 C7         -3.6126   -4.7844    0.4983 C.ar      1 <0>        -0.0376
     10 C8         -3.6669   -6.1540    0.3721 C.ar      1 <0>        -0.1374
     11 C9         -2.7817   -6.8117   -0.4765 C.ar      1 <0>         0.1850
     12 C10        -1.8390   -6.0882   -1.2002 C.ar      1 <0>        -0.1593
     13 C11        -1.7831   -4.7178   -1.0837 C.ar      1 <0>        -0.0309
     14 N1         -2.8393   -8.1991   -0.6014 N.am      1 <0>        -0.6760
     15 C12        -4.0243   -8.8350   -0.5133 C.2       1 <0>         0.5149
     16 O3         -5.0505   -8.1953   -0.4213 O.2       1 <0>        -0.5059
     17 C13        -4.0742  -10.3411   -0.5290 C.3       1 <0>        -0.1362
     18 C14        -5.5280  -10.8045   -0.4167 C.3       1 <0>        -0.1062
     19 C15        -5.5786  -12.3335   -0.4326 C.3       1 <0>         0.0584
     20 O4         -6.9365  -12.7663   -0.3277 O.3       1 <0>        -0.2987
     21 C16        -7.1585  -14.1072   -0.3273 C.ar      1 <0>         0.1533
     22 C17        -6.0910  -14.9882   -0.4200 C.ar      1 <0>        -0.2015
     23 C18        -6.3191  -16.3507   -0.4194 C.ar      1 <0>        -0.0596
     24 C19        -7.6102  -16.8371   -0.3264 C.ar      1 <0>        -0.1022
     25 C20        -8.6762  -15.9617   -0.2339 C.ar      1 <0>        -0.0540
     26 C21        -8.4531  -14.5975   -0.2283 C.ar      1 <0>        -0.1235
     27 Br1        -9.9108  -13.4005   -0.0933 Br        1 <0>        -0.0354
     28 C22        -7.8557  -18.3239   -0.3265 C.3       1 <0>        -0.0248
     29 C23        -7.1337  -18.9601    0.8630 C.3       1 <0>        -0.1401
     30 C24        -9.3578  -18.5929   -0.2146 C.3       1 <0>        -0.1488
     31 C25        -7.3250  -18.9284   -1.6280 C.3       1 <0>        -0.1401
     32 H1         -4.9251    1.9086    2.6656 H         1 <0>         0.0664
     33 H2         -3.1828    1.7089    2.3607 H         1 <0>         0.0587
     34 H3         -4.2935    2.0211    1.0052 H         1 <0>         0.0590
     35 H4         -4.2750   -0.4828    2.7508 H         1 <0>         0.0826
     36 H5         -5.9345   -1.3187    1.1088 H         1 <0>         0.0622
     37 H6         -6.5320    0.1405    1.9345 H         1 <0>         0.0590
     38 H7         -5.9004    0.2530    0.2742 H         1 <0>         0.0548
     39 H8         -3.5111   -0.0931   -0.1772 H         1 <0>         0.0695
     40 H9         -2.3453   -0.2616    1.1573 H         1 <0>         0.0691
     41 H10        -4.2995   -4.2746    1.1576 H         1 <0>         0.1428
     42 H11        -4.3971   -6.7187    0.9326 H         1 <0>         0.1435
     43 H12        -1.1530   -6.6020   -1.8574 H         1 <0>         0.1375
     44 H13        -1.0543   -4.1563   -1.6494 H         1 <0>         0.1430
     45 H14        -2.0265   -8.7066   -0.7518 H         1 <0>         0.4156
     46 H15        -3.6466  -10.7091   -1.4616 H         1 <0>         0.1030
     47 H16        -3.5021  -10.7324    0.3123 H         1 <0>         0.1043
     48 H17        -5.9556  -10.4365    0.5160 H         1 <0>         0.0862
     49 H18        -6.1001  -10.4132   -1.2580 H         1 <0>         0.0862
     50 H19        -5.1510  -12.7015   -1.3653 H         1 <0>         0.0660
     51 H20        -5.0066  -12.7248    0.4087 H         1 <0>         0.0661
     52 H21        -5.0823  -14.6092   -0.4930 H         1 <0>         0.1355
     53 H22        -5.4882  -17.0368   -0.4919 H         1 <0>         0.1305
     54 H23        -9.6837  -16.3441   -0.1617 H         1 <0>         0.1430
     55 H24        -7.5118  -18.5295    1.7902 H         1 <0>         0.0575
     56 H25        -7.3113  -20.0356    0.8629 H         1 <0>         0.0608
     57 H26        -6.0636  -18.7685    0.7832 H         1 <0>         0.0565
     58 H27        -9.8721  -18.1396   -1.0620 H         1 <0>         0.0600
     59 H28        -9.5353  -19.6683   -0.2146 H         1 <0>         0.0618
     60 H29        -9.7359  -18.1622    0.7126 H         1 <0>         0.0600
     61 H30        -6.2549  -18.7368   -1.7077 H         1 <0>         0.0565
     62 H31        -7.5026  -20.0038   -1.6280 H         1 <0>         0.0608
     63 H32        -7.8394  -18.4752   -2.4754 H         1 <0>         0.0575
@<TRIPOS>BOND
     1    1    2 1
     2    1   32 1
     3    1   33 1
     4    1   34 1
     5    2    3 1
     6    2    4 1
     7    2   35 1
     8    3   36 1
     9    3   37 1
    10    3   38 1
    11    4    5 1
    12    4   39 1
    13    4   40 1
    14    5    6 1
    15    6    7 2
    16    6    8 1
    17    8   13 ar
    18    8    9 ar
    19    9   10 ar
    20    9   41 1
    21   10   11 ar
    22   10   42 1
    23   11   12 ar
    24   11   14 1
    25   12   13 ar
    26   12   43 1
    27   13   44 1
    28   14   15 am
    29   14   45 1
    30   15   16 2
    31   15   17 1
    32   17   18 1
    33   17   46 1
    34   17   47 1
    35   18   19 1
    36   18   48 1
    37   18   49 1
    38   19   20 1
    39   19   50 1
    40   19   51 1
    41   20   21 1
    42   21   26 ar
    43   21   22 ar
    44   22   23 ar
    45   22   52 1
    46   23   24 ar
    47   23   53 1
    48   24   25 ar
    49   24   28 1
    50   25   26 ar
    51   25   54 1
    52   26   27 1
    53   28   29 1
    54   28   30 1
    55   28   31 1
    56   29   55 1
    57   29   56 1
    58   29   57 1
    59   30   58 1
    60   30   59 1
    61   30   60 1
    62   31   61 1
    63   31   62 1
    64   31   63 1
@<TRIPOS>MOLECULE
ZINC05626990
   45    46     0     0     0
SMALL
USER_CHARGES
(2,5-dimethylphenyl)carbamoylmethyl 2-(4-bromophenoxy)propanoate
@<TRIPOS>ATOM
      1 C1         -0.6434   -8.5977   -2.0663 C.3       1 <0>        -0.1157
      2 C2         -1.9757   -7.9247   -1.8585 C.ar      1 <0>        -0.0730
      3 C3         -3.1031   -8.6864   -1.6105 C.ar      1 <0>        -0.1274
      4 C4         -4.3274   -8.0729   -1.4202 C.ar      1 <0>        -0.0988
      5 C5         -4.4281   -6.6964   -1.4772 C.ar      1 <0>        -0.1143
      6 C6         -3.2980   -5.9288   -1.7255 C.ar      1 <0>         0.1430
      7 C7         -2.0706   -6.5485   -1.9215 C.ar      1 <0>        -0.1170
      8 N1         -3.3966   -4.5343   -1.7839 N.am      1 <0>        -0.6660
      9 C8         -2.3792   -3.7678   -1.3436 C.2       1 <0>         0.5157
     10 O1         -1.3493   -4.2853   -0.9663 O.2       1 <0>        -0.4924
     11 C9         -2.5214   -2.2677   -1.3202 C.3       1 <0>         0.0509
     12 O2         -1.2992   -1.6736   -0.8086 O.3       1 <0>        -0.3252
     13 C10        -1.2619   -0.3346   -0.7232 C.2       1 <0>         0.4697
     14 O3         -2.2187    0.3195   -1.0646 O.2       1 <0>        -0.4773
     15 C11        -0.0265    0.3530   -0.2014 C.3       1 <0>         0.0959
     16 H1          0.8231    0.1059   -0.8380 H         1 <0>         0.1184
     17 C12         0.2534   -0.1165    1.2276 C.3       1 <0>        -0.1767
     18 O4         -0.2304    1.7674   -0.2068 O.3       1 <0>        -0.2854
     19 C13         0.8792    2.5505   -0.2584 C.ar      1 <0>         0.1457
     20 C14         0.7597    3.9305   -0.1808 C.ar      1 <0>        -0.1394
     21 C15         1.8893    4.7243   -0.2272 C.ar      1 <0>        -0.0482
     22 C16         3.1381    4.1448   -0.3628 C.ar      1 <0>        -0.1275
     23 C17         3.2590    2.7692   -0.4465 C.ar      1 <0>        -0.0463
     24 C18         2.1325    1.9714   -0.3944 C.ar      1 <0>        -0.2072
     25 Br1         4.6821    5.2343   -0.4332 Br        1 <0>        -0.0464
     26 C19        -5.7630   -6.0285   -1.2696 C.3       1 <0>        -0.1162
     27 H2         -0.5073   -8.8146   -3.1258 H         1 <0>         0.0717
     28 H3          0.1542   -7.9377   -1.7252 H         1 <0>         0.0685
     29 H4         -0.6135   -9.5275   -1.4983 H         1 <0>         0.0683
     30 H5         -3.0271   -9.7628   -1.5658 H         1 <0>         0.1246
     31 H6         -5.2060   -8.6705   -1.2270 H         1 <0>         0.1277
     32 H7         -1.1906   -5.9545   -2.1196 H         1 <0>         0.1397
     33 H8         -4.1972   -4.1192   -2.1412 H         1 <0>         0.4135
     34 H9         -3.3566   -1.9918   -0.6765 H         1 <0>         0.1101
     35 H10        -2.7064   -1.9044   -2.3311 H         1 <0>         0.1096
     36 H11         1.1469    0.3808    1.6050 H         1 <0>         0.0829
     37 H12        -0.5962    0.1306    1.8642 H         1 <0>         0.0772
     38 H13         0.4089   -1.1953    1.2317 H         1 <0>         0.0940
     39 H14        -0.2154    4.3835   -0.0794 H         1 <0>         0.1437
     40 H15         1.7970    5.7984   -0.1620 H         1 <0>         0.1428
     41 H16         4.2349    2.3187   -0.5524 H         1 <0>         0.1386
     42 H17         2.2273    0.8975   -0.4590 H         1 <0>         0.1405
     43 H18        -6.2693   -5.9225   -2.2290 H         1 <0>         0.0723
     44 H19        -6.3735   -6.6364   -0.6018 H         1 <0>         0.0729
     45 H20        -5.6116   -5.0436   -0.8278 H         1 <0>         0.0626
@<TRIPOS>BOND
     1    1    2 1
     2    1   27 1
     3    1   28 1
     4    1   29 1
     5    2    7 ar
     6    2    3 ar
     7    3    4 ar
     8    3   30 1
     9    4    5 ar
    10    4   31 1
    11    5    6 ar
    12    5   26 1
    13    6    7 ar
    14    6    8 1
    15    7   32 1
    16    8    9 am
    17    8   33 1
    18    9   10 2
    19    9   11 1
    20   11   12 1
    21   11   34 1
    22   11   35 1
    23   12   13 1
    24   13   14 2
    25   13   15 1
    26   15   16 1
    27   15   17 1
    28   15   18 1
    29   17   36 1
    30   17   37 1
    31   17   38 1
    32   18   19 1
    33   19   24 ar
    34   19   20 ar
    35   20   21 ar
    36   20   39 1
    37   21   22 ar
    38   21   40 1
    39   22   23 ar
    40   22   25 1
    41   23   24 ar
    42   23   41 1
    43   24   42 1
    44   26   43 1
    45   26   44 1
    46   26   45 1
@<TRIPOS>MOLECULE
ZINC22329742
   58    59     0     0     0
SMALL
USER_CHARGES
2-[(3,4-dimethylphenyl)-methylsulfonyl-amino]-N-[(1S)-1-(2,4-dimethylphenyl)propyl]acetamide
@<TRIPOS>ATOM
      1 C1          1.3252    2.5125   -4.8873 C.3       1 <0>        -0.1530
      2 C2         -0.0633    2.6952   -5.5033 C.3       1 <0>        -0.1257
      3 C3         -1.1319    2.4075   -4.4467 C.3       1 <0>         0.1901
      4 H1         -0.9660    3.0113   -3.5423 H         1 <0>         0.1006
      5 C4         -2.4948    2.7056   -5.0165 C.ar      1 <0>        -0.1017
      6 C5         -3.2634    1.6831   -5.5414 C.ar      1 <0>        -0.1014
      7 C6         -4.5154    1.9558   -6.0595 C.ar      1 <0>        -0.1267
      8 C7         -4.9948    3.2526   -6.0626 C.ar      1 <0>        -0.0825
      9 C8         -4.2243    4.2755   -5.5427 C.ar      1 <0>        -0.1193
     10 C9         -2.9741    4.0019   -5.0196 C.ar      1 <0>        -0.0710
     11 C10        -2.1338    5.1173   -4.4532 C.3       1 <0>        -0.1214
     12 C11        -6.3573    3.5508   -6.6332 C.3       1 <0>        -0.1185
     13 N1         -1.0641    0.9974   -4.0550 N.am      1 <0>        -0.7328
     14 C12        -1.4881    0.6162   -2.8338 C.2       1 <0>         0.4942
     15 O1         -1.9258    1.4404   -2.0592 O.2       1 <0>        -0.5253
     16 C13        -1.4184   -0.8342   -2.4308 C.3       1 <0>         0.0879
     17 N2         -1.9345   -0.9879   -1.0683 N.pl3     1 <0>        -0.9271
     18 C14        -1.0906   -0.7820    0.0255 C.ar      1 <0>         0.1558
     19 C15        -1.4242    0.1549    0.9956 C.ar      1 <0>        -0.1272
     20 C16        -0.5903    0.3521    2.0783 C.ar      1 <0>        -0.0954
     21 C17         0.5814   -0.3739    2.1920 C.ar      1 <0>        -0.0890
     22 C18         0.9193   -1.3030    1.2255 C.ar      1 <0>        -0.0700
     23 C19         0.0868   -1.5094    0.1428 C.ar      1 <0>        -0.1191
     24 C20         2.1970   -2.0917    1.3536 C.3       1 <0>        -0.1166
     25 C21         1.4917   -0.1521    3.3724 C.3       1 <0>        -0.1218
     26 S1         -3.5184   -1.4056   -0.8251 S.o2      1 <0>         2.6014
     27 O2         -3.5296   -2.0685    0.4318 O.2       1 <0>        -0.9383
     28 O3         -3.8983   -2.0924   -2.0097 O.2       1 <0>        -0.9520
     29 C22        -4.4040    0.1731   -0.7068 C.3       1 <0>        -0.6647
     30 H2          2.0934    2.7193   -5.6469 H         1 <0>         0.0590
     31 H3          1.4338    1.4785   -4.5281 H         1 <0>         0.0570
     32 H4          1.4466    3.2083   -4.0440 H         1 <0>         0.0555
     33 H5         -0.1719    3.7292   -5.8625 H         1 <0>         0.0807
     34 H6         -0.1848    1.9994   -6.3466 H         1 <0>         0.0723
     35 H7         -2.8870    0.6708   -5.5430 H         1 <0>         0.1199
     36 H8         -5.1173    1.1566   -6.4661 H         1 <0>         0.1206
     37 H9         -4.5987    5.2885   -5.5454 H         1 <0>         0.1211
     38 H10        -2.6785    6.0687   -4.5431 H         1 <0>         0.0659
     39 H11        -1.1875    5.1825   -5.0101 H         1 <0>         0.0710
     40 H12        -1.9221    4.9148   -3.3929 H         1 <0>         0.0722
     41 H13        -6.5627    4.6281   -6.5480 H         1 <0>         0.0650
     42 H14        -7.1197    2.9869   -6.0757 H         1 <0>         0.0697
     43 H15        -6.3840    3.2550   -7.6924 H         1 <0>         0.0703
     44 H16        -0.6672    0.2499   -4.7576 H         1 <0>         0.4220
     45 H17        -2.0252   -1.4366   -3.1228 H         1 <0>         0.1316
     46 H18        -0.3732   -1.1752   -2.4676 H         1 <0>         0.1196
     47 H19        -2.3368    0.7253    0.9051 H         1 <0>         0.1220
     48 H20        -0.8511    1.0774    2.8349 H         1 <0>         0.1281
     49 H21         0.3513   -2.2352   -0.6119 H         1 <0>         0.1269
     50 H22         2.2935   -2.7751    0.4971 H         1 <0>         0.0657
     51 H23         2.1765   -2.6738    2.2867 H         1 <0>         0.0735
     52 H24         3.0536   -1.4018    1.3705 H         1 <0>         0.0721
     53 H25         2.3663   -0.8141    3.2904 H         1 <0>         0.0705
     54 H26         0.9480   -0.3763    4.3020 H         1 <0>         0.0714
     55 H27         1.8252    0.8960    3.3864 H         1 <0>         0.0702
     56 H28        -5.4748   -0.0185   -0.5433 H         1 <0>         0.1295
     57 H29        -4.2712    0.7389   -1.6407 H         1 <0>         0.1354
     58 H30        -4.0030    0.7562    0.1354 H         1 <0>         0.1319
@<TRIPOS>BOND
     1    1    2 1
     2    1   30 1
     3    1   31 1
     4    1   32 1
     5    2    3 1
     6    2   33 1
     7    2   34 1
     8    3    4 1
     9    3    5 1
    10    3   13 1
    11    5   10 ar
    12    5    6 ar
    13    6    7 ar
    14    6   35 1
    15    7    8 ar
    16    7   36 1
    17    8    9 ar
    18    8   12 1
    19    9   10 ar
    20    9   37 1
    21   10   11 1
    22   11   38 1
    23   11   39 1
    24   11   40 1
    25   12   41 1
    26   12   42 1
    27   12   43 1
    28   13   14 am
    29   13   44 1
    30   14   15 2
    31   14   16 1
    32   16   17 1
    33   16   45 1
    34   16   46 1
    35   17   18 1
    36   17   26 1
    37   18   23 ar
    38   18   19 ar
    39   19   20 ar
    40   19   47 1
    41   20   21 ar
    42   20   48 1
    43   21   22 ar
    44   21   25 1
    45   22   23 ar
    46   22   24 1
    47   23   49 1
    48   24   50 1
    49   24   51 1
    50   24   52 1
    51   25   53 1
    52   25   54 1
    53   25   55 1
    54   26   27 2
    55   26   28 2
    56   26   29 1
    57   29   56 1
    58   29   57 1
    59   29   58 1
@<TRIPOS>MOLECULE
ZINC36340293
   65    67     0     0     0
SMALL
USER_CHARGES

@<TRIPOS>ATOM
      1 C1          2.9715   -0.8961    1.3686 C.3       1 <0>        -0.1544
      2 C2          1.8944   -1.9536    1.6186 C.3       1 <0>        -0.1195
      3 C3          1.0566   -2.1377    0.3517 C.3       1 <0>        -0.1524
      4 C4         -0.0205   -3.1952    0.6017 C.3       1 <0>         0.1122
      5 H1          0.4480   -4.1155    0.9506 H         1 <0>         0.0954
      6 C5         -0.7775   -3.4696   -0.6992 C.3       1 <0>         0.0223
      7 N1         -1.8116   -4.4850   -0.4592 N.3       1 <0>        -0.5197
      8 C6         -1.2085   -5.7801   -0.1175 C.3       1 <0>         0.0394
      9 C7         -2.3110   -6.7589    0.3004 C.3       1 <0>         0.1524
     10 N2         -3.3228   -6.8060   -0.7660 N.pl3     1 <0>        -0.6521
     11 C8         -3.8748   -5.5347   -1.2582 C.3       1 <0>         0.1418
     12 C9         -2.7107   -4.6041   -1.6147 C.3       1 <0>         0.0397
     13 C10        -3.7444   -8.0158   -1.2933 C.ar      1 <0>         0.4421
     14 C11        -4.6347   -8.8265   -0.5857 C.ar      1 <0>        -0.1909
     15 C12        -5.0248  -10.0230   -1.1538 C.ar      1 <0>         0.1823
     16 N3         -4.5457  -10.3610   -2.3429 N.ar      1 <0>        -0.5253
     17 C13        -3.7068   -9.5740   -2.9855 C.ar      1 <0>         0.3301
     18 N4         -3.3121   -8.4212   -2.4836 N.ar      1 <0>        -0.5379
     19 C14        -3.1887  -10.0013   -4.3346 C.3       1 <0>        -0.0845
     20 C15        -5.9832  -10.9339   -0.4308 C.3       1 <0>        -0.1193
     21 C16        -5.1561   -8.4062    0.7643 C.3       1 <0>        -0.0275
     22 C17        -6.0429   -7.1980    0.6064 C.ar      1 <0>        -0.0761
     23 C18        -5.5739   -5.9456    0.9571 C.ar      1 <0>        -0.0916
     24 C19        -6.3872   -4.8376    0.8123 C.ar      1 <0>        -0.0948
     25 C20        -7.6696   -4.9814    0.3162 C.ar      1 <0>        -0.1174
     26 C21        -8.1382   -6.2333   -0.0353 C.ar      1 <0>        -0.1206
     27 C22        -7.3232   -7.3411    0.1056 C.ar      1 <0>        -0.0827
     28 C23        -7.8322   -8.7054   -0.2826 C.3       1 <0>        -0.1396
     29 C24        -5.8762   -3.4726    1.1955 C.3       1 <0>        -0.1118
     30 O1         -0.9335   -2.7201    1.5930 O.3       1 <0>        -0.5453
     31 H2          3.5683   -0.7649    2.2712 H         1 <0>         0.0548
     32 H3          3.6155   -1.2197    0.5510 H         1 <0>         0.0520
     33 H4          2.4979    0.0497    1.1056 H         1 <0>         0.0531
     34 H5          2.3680   -2.8994    1.8817 H         1 <0>         0.0596
     35 H6          1.2503   -1.6300    2.4363 H         1 <0>         0.0692
     36 H7          0.5830   -1.1919    0.0887 H         1 <0>         0.0661
     37 H8          1.7007   -2.4614   -0.4659 H         1 <0>         0.0686
     38 H9         -1.2460   -2.5493   -1.0481 H         1 <0>         0.0774
     39 H10        -0.0811   -3.8321   -1.4553 H         1 <0>         0.0401
     40 H11        -0.6806   -6.1758   -0.9852 H         1 <0>         0.0363
     41 H12        -0.5073   -5.6487    0.7066 H         1 <0>         0.0845
     42 H13        -1.8842   -7.7515    0.4443 H         1 <0>         0.0695
     43 H14        -2.7717   -6.4174    1.2274 H         1 <0>         0.0684
     44 H15        -4.4819   -5.7179   -2.1447 H         1 <0>         0.0639
     45 H16        -4.4858   -5.0756   -0.4810 H         1 <0>         0.0891
     46 H17        -3.0990   -3.6198   -1.8765 H         1 <0>         0.0782
     47 H18        -2.1620   -5.0161   -2.4616 H         1 <0>         0.0364
     48 H19        -3.8553   -9.6312   -5.1136 H         1 <0>         0.0844
     49 H20        -2.1899   -9.5922   -4.4865 H         1 <0>         0.0832
     50 H21        -3.1464  -11.0896   -4.3795 H         1 <0>         0.0857
     51 H22        -6.8969  -11.0381   -1.0160 H         1 <0>         0.0895
     52 H23        -5.5233  -11.9131   -0.2976 H         1 <0>         0.0850
     53 H24        -6.2227  -10.5092    0.5441 H         1 <0>         0.0877
     54 H25        -5.7296   -9.2229    1.2027 H         1 <0>         0.0889
     55 H26        -4.3185   -8.1593    1.4166 H         1 <0>         0.0834
     56 H27        -4.5721   -5.8332    1.3447 H         1 <0>         0.1267
     57 H28        -8.3054   -4.1157    0.2037 H         1 <0>         0.1185
     58 H29        -9.1401   -6.3457   -0.4225 H         1 <0>         0.1182
     59 H30        -8.2061   -9.2192    0.6030 H         1 <0>         0.0716
     60 H31        -8.6384   -8.5994   -1.0086 H         1 <0>         0.0623
     61 H32        -7.0205   -9.2843   -0.7230 H         1 <0>         0.0824
     62 H33        -5.3985   -3.0081    0.3329 H         1 <0>         0.0688
     63 H34        -6.7093   -2.8527    1.5271 H         1 <0>         0.0626
     64 H35        -5.1514   -3.5697    2.0038 H         1 <0>         0.0684
     65 H36        -1.3880   -1.9020    1.3493 H         1 <0>         0.3711
@<TRIPOS>BOND
     1    1    2 1
     2    1   31 1
     3    1   32 1
     4    1   33 1
     5    2    3 1
     6    2   34 1
     7    2   35 1
     8    3    4 1
     9    3   36 1
    10    3   37 1
    11    4    5 1
    12    4    6 1
    13    4   30 1
    14    6    7 1
    15    6   38 1
    16    6   39 1
    17    7   12 1
    18    7    8 1
    19    8    9 1
    20    8   40 1
    21    8   41 1
    22    9   10 1
    23    9   42 1
    24    9   43 1
    25   10   11 1
    26   10   13 1
    27   11   12 1
    28   11   44 1
    29   11   45 1
    30   12   46 1
    31   12   47 1
    32   13   18 ar
    33   13   14 ar
    34   14   15 ar
    35   14   21 1
    36   15   16 ar
    37   15   20 1
    38   16   17 ar
    39   17   18 ar
    40   17   19 1
    41   19   48 1
    42   19   49 1
    43   19   50 1
    44   20   51 1
    45   20   52 1
    46   20   53 1
    47   21   22 1
    48   21   54 1
    49   21   55 1
    50   22   27 ar
    51   22   23 ar
    52   23   24 ar
    53   23   56 1
    54   24   25 ar
    55   24   29 1
    56   25   26 ar
    57   25   57 1
    58   26   27 ar
    59   26   58 1
    60   27   28 1
    61   28   59 1
    62   28   60 1
    63   28   61 1
    64   29   62 1
    65   29   63 1
    66   29   64 1
    67   30   65 1
@<TRIPOS>MOLECULE
ZINC57366530
   50    53     0     0     0
SMALL
USER_CHARGES

@<TRIPOS>ATOM
      1 C1          1.1363   -0.0966   -1.3747 C.3       1 <0>         0.0224
      2 N1          0.6549    0.4880   -0.1159 N.3       1 <0>        -0.5235
      3 C2          1.1270    1.8706    0.0369 C.3       1 <0>         0.0101
      4 C3         -0.8099    0.4192   -0.0298 C.3       1 <0>         0.1559
      5 H1         -1.1198   -0.6212    0.0680 H         1 <0>         0.1104
      6 C4         -1.2868    1.2101    1.1900 C.3       1 <0>         0.1286
      7 N2         -0.6128    0.7095    2.3906 N.pl3     1 <0>        -0.6923
      8 C5         -0.9272    1.2360    3.6307 C.ar      1 <0>         0.4901
      9 C6         -0.3632    0.6816    4.8109 C.ar      1 <0>        -0.2456
     10 C7          0.5645   -0.4342    4.9640 C.2       1 <0>        -0.0340
     11 C8          0.9657   -0.7815    6.2091 C.2       1 <0>        -0.1660
     12 S1          0.1140    0.3796    7.2597 S.3       1 <0>         0.1113
     13 C9         -0.7547    1.2984    6.0168 C.ar      1 <0>         0.1512
     14 N3         -1.5897    2.3198    6.0269 N.ar      1 <0>        -0.5268
     15 C10        -2.0814    2.7910    4.8977 C.ar      1 <0>         0.3667
     16 N4         -1.7527    2.2655    3.7312 N.ar      1 <0>        -0.5903
     17 C11         1.0580   -1.1741    3.7779 C.ar      1 <0>        -0.0881
     18 C12         0.1593   -1.8440    2.9485 C.ar      1 <0>        -0.0748
     19 C13         0.6219   -2.5314    1.8458 C.ar      1 <0>        -0.1395
     20 C14         1.9802   -2.5567    1.5613 C.ar      1 <0>         0.1491
     21 C15         2.8775   -1.8909    2.3848 C.ar      1 <0>        -0.1991
     22 C16         2.4212   -1.1968    3.4859 C.ar      1 <0>        -0.0559
     23 O1          2.4327   -3.2355    0.4741 O.3       1 <0>        -0.3132
     24 C17         3.8424   -3.2202    0.2402 C.3       1 <0>         0.0262
     25 C18        -1.4147    1.0082   -1.2782 C.2       1 <0>        -0.1789
     26 C19        -2.3892    0.5044   -2.0743 C.2       1 <0>        -0.1384
     27 C20        -2.7916    1.2281   -3.1811 C.2       1 <0>        -0.1594
     28 C21        -2.1997    2.4202   -3.4377 C.2       1 <0>        -0.1787
     29 S2         -1.0390    2.5543   -2.0879 S.3       1 <0>         0.0508
     30 H2          2.2262   -0.0886   -1.3856 H         1 <0>         0.0691
     31 H3          0.7796   -1.1232   -1.4584 H         1 <0>         0.0715
     32 H4          0.7602    0.4883   -2.2141 H         1 <0>         0.0363
     33 H5          0.7277    2.4824   -0.7721 H         1 <0>         0.0367
     34 H6          0.7872    2.2669    0.9938 H         1 <0>         0.0756
     35 H7          2.2163    1.8886    0.0023 H         1 <0>         0.0743
     36 H8         -1.0503    2.2654    1.0539 H         1 <0>         0.0760
     37 H9         -2.3645    1.0908    1.3018 H         1 <0>         0.0802
     38 H10         0.0539    0.0089    2.3160 H         1 <0>         0.4250
     39 H11         1.6410   -1.5735    6.4974 H         1 <0>         0.1955
     40 H12        -2.7636    3.6278    4.9269 H         1 <0>         0.2068
     41 H13        -0.8976   -1.8250    3.1696 H         1 <0>         0.1291
     42 H14        -0.0736   -3.0508    1.2033 H         1 <0>         0.1324
     43 H15         3.9338   -1.9126    2.1606 H         1 <0>         0.1310
     44 H16         3.1194   -0.6752    4.1237 H         1 <0>         0.1281
     45 H17         4.3572   -3.6594    1.0947 H         1 <0>         0.0562
     46 H18         4.0682   -3.7979   -0.6561 H         1 <0>         0.1008
     47 H19         4.1769   -2.1919    0.1036 H         1 <0>         0.0569
     48 H20        -2.8443   -0.4484   -1.8474 H         1 <0>         0.1329
     49 H21        -3.5657    0.8491   -3.8319 H         1 <0>         0.1334
     50 H22        -2.3851    3.1115   -4.2465 H         1 <0>         0.1838
@<TRIPOS>BOND
     1    1    2 1
     2    1   30 1
     3    1   31 1
     4    1   32 1
     5    2    3 1
     6    2    4 1
     7    3   33 1
     8    3   34 1
     9    3   35 1
    10    4    5 1
    11    4    6 1
    12    4   25 1
    13    6    7 1
    14    6   36 1
    15    6   37 1
    16    7    8 1
    17    7   38 1
    18    8   16 ar
    19    8    9 ar
    20    9   13 ar
    21    9   10 1
    22   10   11 2
    23   10   17 1
    24   11   12 1
    25   11   39 1
    26   12   13 1
    27   13   14 ar
    28   14   15 ar
    29   15   16 ar
    30   15   40 1
    31   17   22 ar
    32   17   18 ar
    33   18   19 ar
    34   18   41 1
    35   19   20 ar
    36   19   42 1
    37   20   21 ar
    38   20   23 1
    39   21   22 ar
    40   21   43 1
    41   22   44 1
    42   23   24 1
    43   24   45 1
    44   24   46 1
    45   24   47 1
    46   25   29 1
    47   25   26 2
    48   26   27 1
    49   26   48 1
    50   27   28 2
    51   27   49 1
    52   28   29 1
    53   28   50 1
@<TRIPOS>MOLECULE
ZINC63514754
   62    64     0     0     0
SMALL
NO_CHARGES

@<TRIPOS>ATOM
      1 C1          0.1736    1.3184    0.6303 C.3       1 <0>        -0.1528
      2 C2          0.1049   -0.2050    0.5059 C.3       1 <0>        -0.1148
      3 C3         -1.3495   -0.6353    0.3046 C.3       1 <0>        -0.1664
      4 C4         -1.4171   -2.1357    0.1820 C.2       1 <0>         0.3686
      5 O1         -0.4063   -2.7932    0.2487 O.2       1 <0>        -0.4036
      6 C5         -2.7461   -2.8158   -0.0239 C.3       1 <0>        -0.1486
      7 C6         -2.5364   -4.1728   -0.6647 C.2       1 <0>         0.1672
      8 C7         -3.6920   -5.1482   -0.6620 C.3       1 <0>        -0.1361
      9 C8         -4.1774   -5.3429    0.7771 C.3       1 <0>        -0.0487
     10 C9         -4.5972   -3.9930    1.3652 C.3       1 <0>        -0.1581
     11 C10        -3.4199   -3.0453    1.3138 C.2       1 <0>         0.3839
     12 O2         -3.0278   -2.4873    2.3104 O.2       1 <0>        -0.4360
     13 C11        -5.3737   -6.2967    0.7865 C.3       1 <0>        -0.1419
     14 C12        -3.0469   -5.9364    1.6201 C.3       1 <0>        -0.1524
     15 N1         -1.4137   -4.4844   -1.1934 N.2       1 <0>        -0.4711
     16 C13        -1.1690   -5.8592   -1.6363 C.3       1 <0>         0.0237
     17 C14        -1.0375   -5.8884   -3.1603 C.3       1 <0>        -0.0300
     18 C15        -0.7857   -7.3027   -3.6158 C.2       1 <0>        -0.2052
     19 C16        -0.6905   -8.4031   -2.8358 C.ar      1 <0>        -0.0409
     20 C17        -0.7878   -8.6073   -1.3865 C.ar      1 <0>        -0.1905
     21 C18        -0.6458   -9.8546   -0.8774 C.ar      1 <0>         0.1129
     22 C19        -0.4061  -10.9749   -1.6922 C.ar      1 <0>        -0.1815
     23 C20        -0.3002  -10.8877   -3.0354 C.ar      1 <0>        -0.1380
     24 C21        -0.4379   -9.5843   -3.6932 C.ar      1 <0>         0.1477
     25 N2         -0.3795   -9.2281   -4.9521 N.pl3     1 <0>        -0.6388
     26 C22        -0.5950   -7.7792   -5.0385 C.3       1 <0>         0.1693
     27 H1          0.2764   -7.2979   -5.4823 H         1 <0>         0.0970
     28 C23        -1.8449   -7.4773   -5.8678 C.3       1 <0>        -0.1555
     29 O3         -0.7379  -10.0289    0.4674 O.3       1 <0>        -0.3228
     30 C24        -0.5820  -11.3608    0.9612 C.3       1 <0>         0.0290
     31 H2          1.2097    1.6249    0.7737 H         1 <0>         0.0570
     32 H3         -0.2180    1.7752   -0.2786 H         1 <0>         0.0543
     33 H4         -0.4221    1.6403    1.4845 H         1 <0>         0.0549
     34 H5          0.7006   -0.5270   -0.3483 H         1 <0>         0.0676
     35 H6          0.4965   -0.6618    1.4148 H         1 <0>         0.0671
     36 H7         -1.9452   -0.3133    1.1587 H         1 <0>         0.1002
     37 H8         -1.7410   -0.1784   -0.6044 H         1 <0>         0.0953
     38 H9         -4.5049   -4.7522   -1.2706 H         1 <0>         0.0941
     39 H10        -3.3829   -2.1996   -0.6586 H         1 <0>         0.1455
     40 H11        -5.4218   -3.5820    0.7827 H         1 <0>         0.1066
     41 H12        -4.9117   -4.1280    2.4001 H         1 <0>         0.0992
     42 H13        -5.0745   -7.2588    0.3704 H         1 <0>         0.0626
     43 H14        -5.7196   -6.4356    1.8108 H         1 <0>         0.0622
     44 H15        -6.1791   -5.8754    0.1850 H         1 <0>         0.0608
     45 H16        -2.1937   -5.2581    1.6129 H         1 <0>         0.0539
     46 H17        -3.3921   -6.0752    2.6447 H         1 <0>         0.0633
     47 H18        -2.7496   -6.8987    1.2034 H         1 <0>         0.0653
     48 H19        -3.3629   -6.1046   -1.0683 H         1 <0>         0.0961
     49 H20        -0.2478   -6.2278   -1.1850 H         1 <0>         0.0993
     50 H21        -2.0018   -6.4929   -1.3313 H         1 <0>         0.0672
     51 H22        -1.9587   -5.5198   -3.6116 H         1 <0>         0.0705
     52 H23        -0.2046   -5.2547   -3.4653 H         1 <0>         0.0816
     53 H24        -0.9708   -7.7694   -0.7301 H         1 <0>         0.1359
     54 H25        -0.3023  -11.9432   -1.2253 H         1 <0>         0.1241
     55 H26        -0.1148  -11.7746   -3.6232 H         1 <0>         0.1236
     56 H27        -2.0269   -6.4027   -5.8725 H         1 <0>         0.0765
     57 H28        -1.6954   -7.8251   -6.8899 H         1 <0>         0.0618
     58 H29        -2.7027   -7.9892   -5.4316 H         1 <0>         0.0643
     59 H30        -0.6776  -11.3593    2.0469 H         1 <0>         0.0964
     60 H31        -1.3516  -12.0007    0.5295 H         1 <0>         0.0523
     61 H32         0.4022  -11.7383    0.6836 H         1 <0>         0.0525
     62 H33        -0.2237   -9.8230   -5.7022 H         1 <0>         0.4223
@<TRIPOS>BOND
     1    1    2 1
     2    1   31 1
     3    1   32 1
     4    1   33 1
     5    2    3 1
     6    2   34 1
     7    2   35 1
     8    3    4 1
     9    3   36 1
    10    3   37 1
    11    4    5 2
    12    4    6 1
    13    6   11 1
    14    6   39 1
    15    6    7 1
    16    7    8 1
    17    7   15 2
    18    8    9 1
    19    8   38 1
    20    8   48 1
    21    9   10 1
    22    9   13 1
    23    9   14 1
    24   10   11 1
    25   10   40 1
    26   10   41 1
    27   11   12 2
    28   13   42 1
    29   13   43 1
    30   13   44 1
    31   14   45 1
    32   14   46 1
    33   14   47 1
    34   15   16 1
    35   16   17 1
    36   16   49 1
    37   16   50 1
    38   17   18 1
    39   17   51 1
    40   17   52 1
    41   18   26 1
    42   18   19 2
    43   19   24 ar
    44   19   20 ar
    45   20   21 ar
    46   20   53 1
    47   21   22 ar
    48   21   29 1
    49   22   23 ar
    50   22   54 1
    51   23   24 ar
    52   23   55 1
    53   24   25 2
    54   25   26 1
    55   25   62 1
    56   26   27 1
    57   26   28 1
    58   28   56 1
    59   28   57 1
    60   28   58 1
    61   29   30 1
    62   30   59 1
    63   30   60 1
    64   30   61 1
@<TRIPOS>MOLECULE
ZINC09243554
   73    76     0     0     0
SMALL
USER_CHARGES
(3-ethoxypropyl-pentyl-BLAHyl) hexanoate
@<TRIPOS>ATOM
      1 C1          3.5327    9.4796    3.7163 C.3       1 <0>        -0.1539
      2 C2          2.8197    8.1854    4.1131 C.3       1 <0>        -0.1254
      3 C3          3.4819    7.0010    3.4062 C.3       1 <0>        -0.1175
      4 C4          2.7689    5.7067    3.8031 C.3       1 <0>        -0.1151
      5 C5          3.4310    4.5223    3.0961 C.3       1 <0>        -0.0759
      6 C6          2.7288    3.2475    3.4870 C.2       1 <0>         0.4031
      7 N1          1.7232    2.8471    2.7681 N.2       1 <0>        -0.4854
      8 C7          1.0414    1.7230    3.0449 C.2       1 <0>         0.2786
      9 C8          1.4211    0.9481    4.1465 C.2       1 <0>        -0.1466
     10 C9          0.5094   -0.1904    4.1889 C.2       1 <0>         0.0504
     11 C10        -0.3422   -0.0418    3.1520 C.2       1 <0>        -0.0007
     12 N2         -0.0249    1.0999    2.4598 N.pl3     1 <0>        -0.4215
     13 C11        -0.7305    1.5836    1.2705 C.3       1 <0>         0.1122
     14 C12        -0.0020    1.1020    0.0142 C.3       1 <0>        -0.1359
     15 C13        -0.7389    1.6071   -1.2279 C.3       1 <0>         0.0682
     16 O1         -0.0585    1.1573   -2.4012 O.3       1 <0>        -0.3885
     17 C14        -0.6684    1.5768   -3.6235 C.3       1 <0>         0.0577
     18 C15         0.1398    1.0409   -4.8070 C.3       1 <0>        -0.1531
     19 O2          0.5132   -1.2022    5.0997 O.3       1 <0>        -0.2424
     20 C16        -0.4927   -2.0876    5.0310 C.2       1 <0>         0.4602
     21 O3         -1.2973   -2.0218    4.1268 O.2       1 <0>        -0.4990
     22 C17        -0.6221   -3.1638    6.0779 C.3       1 <0>        -0.1088
     23 C18        -1.8430   -4.0323    5.7683 C.3       1 <0>        -0.1100
     24 C19        -1.9744   -5.1250    6.8312 C.3       1 <0>        -0.1210
     25 C20        -3.1953   -5.9935    6.5217 C.3       1 <0>        -0.1251
     26 C21        -3.3267   -7.0861    7.5846 C.3       1 <0>        -0.1544
     27 C22         2.5523    1.3969    4.9567 C.2       1 <0>         0.3595
     28 N3          3.1766    2.5659    4.5781 N.pl3     1 <0>        -0.4430
     29 C23         4.2019    2.7883    5.4785 C.ar      1 <0>         0.0266
     30 C24         5.1618    3.7811    5.6173 C.ar      1 <0>        -0.0946
     31 C25         6.0709    3.7147    6.6521 C.ar      1 <0>        -0.1099
     32 C26         6.0336    2.6618    7.5555 C.ar      1 <0>        -0.1066
     33 C27         5.0969    1.6751    7.4361 C.ar      1 <0>        -0.0740
     34 C28         4.1638    1.7213    6.3943 C.ar      1 <0>         0.0869
     35 N4          3.1429    0.9096    6.0272 N.2       1 <0>        -0.4786
     36 H1          4.5810    9.4215    4.0093 H         1 <0>         0.0546
     37 H2          3.4641    9.6160    2.6371 H         1 <0>         0.0543
     38 H3          3.0610   10.3234    4.2200 H         1 <0>         0.0545
     39 H4          1.7714    8.2435    3.8202 H         1 <0>         0.0618
     40 H5          2.8884    8.0489    5.1924 H         1 <0>         0.0619
     41 H6          4.5302    6.9428    3.6992 H         1 <0>         0.0658
     42 H7          3.4132    7.1374    2.3270 H         1 <0>         0.0681
     43 H8          1.7206    5.7649    3.5101 H         1 <0>         0.0745
     44 H9          2.8375    5.5703    4.8823 H         1 <0>         0.0664
     45 H10         4.4793    4.4642    3.3891 H         1 <0>         0.0964
     46 H11         3.3624    4.6588    2.0169 H         1 <0>         0.1111
     47 H12        -1.1467   -0.7182    2.9039 H         1 <0>         0.2196
     48 H13        -0.7553    2.6732    1.2809 H         1 <0>         0.0998
     49 H14        -1.7496    1.1969    1.2703 H         1 <0>         0.1021
     50 H15         0.0228    0.0123    0.0039 H         1 <0>         0.0804
     51 H16         1.0171    1.4886    0.0144 H         1 <0>         0.0813
     52 H17        -1.7580    1.2205   -1.2281 H         1 <0>         0.0532
     53 H18        -0.7637    2.6968   -1.2175 H         1 <0>         0.0537
     54 H19        -1.6861    1.1895   -3.6735 H         1 <0>         0.0494
     55 H20        -0.6918    2.6658   -3.6629 H         1 <0>         0.0494
     56 H21         1.1575    1.4283   -4.7571 H         1 <0>         0.0633
     57 H22         0.1632   -0.0481   -4.7676 H         1 <0>         0.0633
     58 H23        -0.3254    1.3609   -5.7393 H         1 <0>         0.0727
     59 H24         0.2747   -3.7834    6.0749 H         1 <0>         0.1117
     60 H25        -0.7426   -2.7039    7.0588 H         1 <0>         0.1118
     61 H26        -2.7398   -3.4128    5.7714 H         1 <0>         0.0735
     62 H27        -1.7225   -4.4922    4.7875 H         1 <0>         0.0740
     63 H28        -1.0776   -5.7445    6.8282 H         1 <0>         0.0660
     64 H29        -2.0949   -4.6651    7.8121 H         1 <0>         0.0658
     65 H30        -4.0921   -5.3740    6.5247 H         1 <0>         0.0622
     66 H31        -3.0748   -6.4534    5.5408 H         1 <0>         0.0624
     67 H32        -2.4299   -7.7057    7.5815 H         1 <0>         0.0542
     68 H33        -3.4472   -6.6263    8.5654 H         1 <0>         0.0541
     69 H34        -4.1965   -7.7049    7.3640 H         1 <0>         0.0543
     70 H35         5.1964    4.6029    4.9174 H         1 <0>         0.1302
     71 H36         6.8176    4.4875    6.7602 H         1 <0>         0.1355
     72 H37         6.7521    2.6225    8.3609 H         1 <0>         0.1348
     73 H38         5.0766    0.8601    8.1445 H         1 <0>         0.1352
@<TRIPOS>BOND
     1    1    2 1
     2    1   36 1
     3    1   37 1
     4    1   38 1
     5    2    3 1
     6    2   39 1
     7    2   40 1
     8    3    4 1
     9    3   41 1
    10    3   42 1
    11    4    5 1
    12    4   43 1
    13    4   44 1
    14    5    6 1
    15    5   45 1
    16    5   46 1
    17    6   28 1
    18    6    7 2
    19    7    8 1
    20    8   12 1
    21    8    9 2
    22    9   10 1
    23    9   27 1
    24   10   11 2
    25   10   19 1
    26   11   12 1
    27   11   47 1
    28   12   13 1
    29   13   14 1
    30   13   48 1
    31   13   49 1
    32   14   15 1
    33   14   50 1
    34   14   51 1
    35   15   16 1
    36   15   52 1
    37   15   53 1
    38   16   17 1
    39   17   18 1
    40   17   54 1
    41   17   55 1
    42   18   56 1
    43   18   57 1
    44   18   58 1
    45   19   20 1
    46   20   21 2
    47   20   22 1
    48   22   23 1
    49   22   59 1
    50   22   60 1
    51   23   24 1
    52   23   61 1
    53   23   62 1
    54   24   25 1
    55   24   63 1
    56   24   64 1
    57   25   26 1
    58   25   65 1
    59   25   66 1
    60   26   67 1
    61   26   68 1
    62   26   69 1
    63   27   35 2
    64   27   28 1
    65   28   29 1
    66   29   34 ar
    67   29   30 ar
    68   30   31 ar
    69   30   70 1
    70   31   32 ar
    71   31   71 1
    72   32   33 ar
    73   32   72 1
    74   33   34 ar
    75   33   73 1
    76   34   35 1
@<TRIPOS>MOLECULE
ZINC16742158
   68    71     0     0     0
SMALL
USER_CHARGES
(5Z)-2-[(E)-2-(3,4-dimethoxyphenyl)vinyl]-5-[(4-hexoxy-3-methoxy-phenyl)methylene]thiazolo[2,3-e][1,2,4]triazol-6-one
@<TRIPOS>ATOM
      1 C1         -6.1101   12.4659    1.0961 C.3       1 <0>        -0.1550
      2 C2         -5.5982   11.0279    0.9908 C.3       1 <0>        -0.1257
      3 C3         -4.0732   11.0371    0.8684 C.3       1 <0>        -0.1202
      4 C4         -3.5613    9.5991    0.7631 C.3       1 <0>        -0.1172
      5 C5         -2.0362    9.6084    0.6407 C.3       1 <0>        -0.1196
      6 C6         -1.5243    8.1704    0.5354 C.3       1 <0>         0.0538
      7 O1         -0.0999    8.1790    0.4211 O.3       1 <0>        -0.2952
      8 C7          0.5177    6.9736    0.3176 C.ar      1 <0>         0.1428
      9 C8         -0.2355    5.8069    0.3263 C.ar      1 <0>        -0.1809
     10 C9          0.3846    4.5815    0.2222 C.ar      1 <0>        -0.0577
     11 C10         1.7787    4.5104    0.1072 C.ar      1 <0>        -0.1057
     12 C11         2.5375    5.6876    0.1045 C.ar      1 <0>        -0.1385
     13 C12         1.9062    6.9116    0.2036 C.ar      1 <0>         0.1054
     14 O2          2.6392    8.0571    0.1956 O.3       1 <0>        -0.2983
     15 C13         4.0566    7.9194    0.0759 C.3       1 <0>         0.0175
     16 C14         2.4427    3.2062   -0.0039 C.2       1 <0>         0.1069
     17 C15         3.7696    3.1415   -0.2892 C.2       1 <0>        -0.2403
     18 C16         4.6679    1.9784   -0.2986 C.2       1 <0>         0.5695
     19 O3          4.2592    0.8652   -0.0243 O.2       1 <0>        -0.4360
     20 N1          5.9526    2.1852   -0.6192 N.am      1 <0>        -0.4187
     21 C17         6.3623    3.4544   -0.9190 C.2       1 <0>         0.2550
     22 S1          4.8967    4.4474   -0.7552 S.3       1 <0>         0.1546
     23 N2          7.6339    3.4518   -1.2023 N.2       1 <0>        -0.4627
     24 C18         8.1078    2.1982   -1.1021 C.2       1 <0>         0.2940
     25 N3          7.1284    1.3962   -0.7519 N.2       1 <0>        -0.2570
     26 C19         9.5021    1.7892   -1.3455 C.2       1 <0>        -0.1024
     27 C20        10.4184    2.7051   -1.7005 C.2       1 <0>        -0.0232
     28 C21        11.8126    2.2961   -1.9439 C.ar      1 <0>        -0.0724
     29 C22        12.1839    0.9556   -1.8060 C.ar      1 <0>        -0.0945
     30 C23        13.4892    0.5752   -2.0348 C.ar      1 <0>        -0.1751
     31 C24        14.4366    1.5200   -2.4024 C.ar      1 <0>         0.1139
     32 C25        14.0739    2.8580   -2.5417 C.ar      1 <0>         0.0981
     33 C26        12.7664    3.2467   -2.3189 C.ar      1 <0>        -0.1479
     34 O4         15.0054    3.7809   -2.9022 O.3       1 <0>        -0.3053
     35 C27        14.5637    5.1342   -3.0264 C.3       1 <0>         0.0240
     36 O5         15.7221    1.1392   -2.6267 O.3       1 <0>        -0.3038
     37 C28        16.0254   -0.2479   -2.4654 C.3       1 <0>         0.0240
     38 H1         -5.6779   12.9419    1.9763 H         1 <0>         0.0540
     39 H2         -5.8205   13.0209    0.2038 H         1 <0>         0.0541
     40 H3         -7.1966   12.4593    1.1833 H         1 <0>         0.0542
     41 H4         -6.0305   10.5519    0.1106 H         1 <0>         0.0612
     42 H5         -5.8878   10.4729    1.8831 H         1 <0>         0.0612
     43 H6         -3.6409   11.5131    1.7486 H         1 <0>         0.0640
     44 H7         -3.7836   11.5921   -0.0239 H         1 <0>         0.0641
     45 H8         -3.9935    9.1232   -0.1171 H         1 <0>         0.0658
     46 H9         -3.8508    9.0441    1.6554 H         1 <0>         0.0658
     47 H10        -1.6039   10.0843    1.5209 H         1 <0>         0.0759
     48 H11        -1.7466   10.1634   -0.2516 H         1 <0>         0.0760
     49 H12        -1.9566    7.6944   -0.3448 H         1 <0>         0.0668
     50 H13        -1.8139    7.6154    1.4277 H         1 <0>         0.0668
     51 H14        -1.3105    5.8606    0.4152 H         1 <0>         0.1475
     52 H15        -0.2038    3.6759    0.2288 H         1 <0>         0.1443
     53 H16         3.6131    5.6383    0.0210 H         1 <0>         0.1379
     54 H17         4.4368    7.3342    0.9131 H         1 <0>         0.0600
     55 H18         4.2947    7.4128   -0.8594 H         1 <0>         0.0578
     56 H19         4.5193    8.9063    0.0826 H         1 <0>         0.1095
     57 H20         1.8766    2.2979    0.1410 H         1 <0>         0.1713
     58 H21         9.7874    0.7531   -1.2386 H         1 <0>         0.1488
     59 H22        10.1331    3.7412   -1.8074 H         1 <0>         0.1380
     60 H23        11.4485    0.2180   -1.5207 H         1 <0>         0.1341
     61 H24        13.7750   -0.4608   -1.9280 H         1 <0>         0.1402
     62 H25        12.4831    4.2829   -2.4306 H         1 <0>         0.1420
     63 H26        15.4033    5.7651   -3.3182 H         1 <0>         0.1024
     64 H27        13.7837    5.1936   -3.7854 H         1 <0>         0.0565
     65 H28        14.1673    5.4762   -2.0704 H         1 <0>         0.0565
     66 H29        17.0821   -0.4154   -2.6738 H         1 <0>         0.1028
     67 H30        15.8042   -0.5516   -1.4422 H         1 <0>         0.0570
     68 H31        15.4211   -0.8347   -3.1573 H         1 <0>         0.0571
@<TRIPOS>BOND
     1    1    2 1
     2    1   38 1
     3    1   39 1
     4    1   40 1
     5    2    3 1
     6    2   41 1
     7    2   42 1
     8    3    4 1
     9    3   43 1
    10    3   44 1
    11    4    5 1
    12    4   45 1
    13    4   46 1
    14    5    6 1
    15    5   47 1
    16    5   48 1
    17    6    7 1
    18    6   49 1
    19    6   50 1
    20    7    8 1
    21    8   13 ar
    22    8    9 ar
    23    9   10 ar
    24    9   51 1
    25   10   11 ar
    26   10   52 1
    27   11   12 ar
    28   11   16 1
    29   12   13 ar
    30   12   53 1
    31   13   14 1
    32   14   15 1
    33   15   54 1
    34   15   55 1
    35   15   56 1
    36   16   17 2
    37   16   57 1
    38   17   22 1
    39   17   18 1
    40   18   19 2
    41   18   20 am
    42   20   25 1
    43   20   21 1
    44   21   22 1
    45   21   23 2
    46   23   24 1
    47   24   25 2
    48   24   26 1
    49   26   27 2
    50   26   58 1
    51   27   28 1
    52   27   59 1
    53   28   33 ar
    54   28   29 ar
    55   29   30 ar
    56   29   60 1
    57   30   31 ar
    58   30   61 1
    59   31   32 ar
    60   31   36 1
    61   32   33 ar
    62   32   34 1
    63   33   62 1
    64   34   35 1
    65   35   63 1
    66   35   64 1
    67   35   65 1
    68   36   37 1
    69   37   66 1
    70   37   67 1
    71   37   68 1
@<TRIPOS>MOLECULE
ZINC36521657
   71    72     0     0     0
SMALL
USER_CHARGES

@<TRIPOS>ATOM
      1 C1          5.8919   -5.3446   11.7230 C.3       1 <0>        -0.1529
      2 C2          5.7343   -4.5252   10.4406 C.3       1 <0>        -0.1244
      3 C3          4.9289   -5.3288    9.4177 C.3       1 <0>        -0.1192
      4 C4          4.7713   -4.5094    8.1352 C.3       1 <0>        -0.1107
      5 C5          3.9659   -5.3130    7.1123 C.3       1 <0>        -0.1293
      6 C6          3.8083   -4.4936    5.8298 C.3       1 <0>         0.1017
      7 N1          2.8833   -5.1784    4.9234 N.am      1 <0>        -0.5962
      8 C7          1.4748   -5.3344    5.2947 C.3       1 <0>         0.1670
      9 H1          0.8491   -4.8013    4.5789 H         1 <0>         0.1164
     10 C8          1.1123   -6.7972    5.2870 C.ar      1 <0>        -0.1663
     11 C9          2.1074   -7.7540    5.2068 C.ar      1 <0>        -0.0361
     12 C10         1.7788   -9.0954    5.1995 C.ar      1 <0>        -0.1828
     13 C11         0.4469   -9.4829    5.2728 C.ar      1 <0>         0.2312
     14 C12        -0.5503   -8.5191    5.3533 C.ar      1 <0>        -0.1856
     15 C13        -0.2142   -7.1796    5.3658 C.ar      1 <0>        -0.0854
     16 N2          0.1109  -10.8386    5.2652 N.pl3     1 <0>        -0.6325
     17 C14         1.1638  -11.8537    5.1798 C.3       1 <0>         0.0931
     18 C15        -1.2943  -11.2455    5.3426 C.3       1 <0>         0.0908
     19 C16         1.2534   -4.7693    6.6741 C.2       1 <0>         0.5217
     20 O1          1.9053   -3.8190    7.0519 O.2       1 <0>        -0.5115
     21 N3          0.3309   -5.3200    7.4879 N.am      1 <0>        -0.7147
     22 C17         0.1157   -4.7707    8.8288 C.3       1 <0>         0.1697
     23 C18        -0.3165   -3.3072    8.7171 C.3       1 <0>        -0.1645
     24 C19        -0.9769   -5.5723    9.5391 C.3       1 <0>        -0.1570
     25 C20         1.4157   -4.8587    9.6308 C.3       1 <0>        -0.1688
     26 C21         3.3281   -5.6648    3.7478 C.2       1 <0>         0.5625
     27 O2          4.4117   -5.3197    3.3182 O.2       1 <0>        -0.5024
     28 C22         2.4987   -6.6176    2.9811 C.ar      1 <0>        -0.1391
     29 C23         1.1080   -6.5928    3.1030 C.ar      1 <0>        -0.0685
     30 C24         0.3397   -7.4843    2.3843 C.ar      1 <0>        -0.1301
     31 C25         0.9435   -8.4033    1.5435 C.ar      1 <0>        -0.0735
     32 C26         2.3201   -8.4348    1.4175 C.ar      1 <0>        -0.1320
     33 C27         3.1020   -7.5435    2.1266 C.ar      1 <0>         0.0189
     34 Cl1         4.8298   -7.5787    1.9616 Cl        1 <0>        -0.0439
     35 H2          6.4147   -6.2742   11.4983 H         1 <0>         0.0520
     36 H3          6.4657   -4.7721   12.4518 H         1 <0>         0.0527
     37 H4          4.9076   -5.5712   12.1327 H         1 <0>         0.0520
     38 H5          5.2115   -3.5955   10.6653 H         1 <0>         0.0607
     39 H6          6.7187   -4.2986   10.0310 H         1 <0>         0.0598
     40 H7          5.4517   -6.2584    9.1929 H         1 <0>         0.0561
     41 H8          3.9446   -5.5554    9.8273 H         1 <0>         0.0616
     42 H9          4.2485   -3.5797    8.3600 H         1 <0>         0.0696
     43 H10         5.7557   -4.2828    7.7256 H         1 <0>         0.0584
     44 H11         4.4887   -6.2427    6.8875 H         1 <0>         0.0487
     45 H12         2.9815   -5.5396    7.5219 H         1 <0>         0.0706
     46 H13         3.4137   -3.5076    6.0749 H         1 <0>         0.1110
     47 H14         4.7789   -4.3864    5.3456 H         1 <0>         0.0848
     48 H15         3.1428   -7.4521    5.1495 H         1 <0>         0.1214
     49 H16         2.5564   -9.8422    5.1365 H         1 <0>         0.1206
     50 H17        -1.5868   -8.8170    5.4100 H         1 <0>         0.1270
     51 H18        -0.9887   -6.4298    5.4328 H         1 <0>         0.1269
     52 H19         1.8350  -11.7536    6.0328 H         1 <0>         0.0547
     53 H20         0.7131  -12.8462    5.1868 H         1 <0>         0.0744
     54 H21         1.7265  -11.7167    4.2565 H         1 <0>         0.0559
     55 H22        -1.7055  -11.3251    4.3363 H         1 <0>         0.0502
     56 H23        -1.3658  -12.2118    5.8418 H         1 <0>         0.0675
     57 H24        -1.8572  -10.5023    5.9073 H         1 <0>         0.0694
     58 H25        -0.1905   -6.0801    7.1857 H         1 <0>         0.4017
     59 H26        -1.2426   -3.2445    8.1458 H         1 <0>         0.0537
     60 H27        -0.4766   -2.8985    9.7148 H         1 <0>         0.0633
     61 H28         0.4619   -2.7361    8.2111 H         1 <0>         0.0798
     62 H29        -0.6690   -6.6149    9.6187 H         1 <0>         0.0615
     63 H30        -1.1370   -5.1636   10.5368 H         1 <0>         0.0748
     64 H31        -1.9031   -5.5096    8.9678 H         1 <0>         0.0618
     65 H32         2.1941   -4.2876    9.1248 H         1 <0>         0.0873
     66 H33         1.2556   -4.4500   10.6284 H         1 <0>         0.0621
     67 H34         1.7236   -5.9013    9.7104 H         1 <0>         0.0533
     68 H35         0.6350   -5.8770    3.7590 H         1 <0>         0.1576
     69 H36        -0.7360   -7.4658    2.4781 H         1 <0>         0.1289
     70 H37         0.3365   -9.0993    0.9836 H         1 <0>         0.1288
     71 H38         2.7847   -9.1549    0.7602 H         1 <0>         0.1337
@<TRIPOS>BOND
     1    1    2 1
     2    1   35 1
     3    1   36 1
     4    1   37 1
     5    2    3 1
     6    2   38 1
     7    2   39 1
     8    3    4 1
     9    3   40 1
    10    3   41 1
    11    4    5 1
    12    4   42 1
    13    4   43 1
    14    5    6 1
    15    5   44 1
    16    5   45 1
    17    6    7 1
    18    6   46 1
    19    6   47 1
    20    7    8 1
    21    7   26 am
    22    8    9 1
    23    8   10 1
    24    8   19 1
    25   10   15 ar
    26   10   11 ar
    27   11   12 ar
    28   11   48 1
    29   12   13 ar
    30   12   49 1
    31   13   14 ar
    32   13   16 1
    33   14   15 ar
    34   14   50 1
    35   15   51 1
    36   16   17 1
    37   16   18 1
    38   17   52 1
    39   17   53 1
    40   17   54 1
    41   18   55 1
    42   18   56 1
    43   18   57 1
    44   19   20 2
    45   19   21 am
    46   21   22 1
    47   21   58 1
    48   22   23 1
    49   22   24 1
    50   22   25 1
    51   23   59 1
    52   23   60 1
    53   23   61 1
    54   24   62 1
    55   24   63 1
    56   24   64 1
    57   25   65 1
    58   25   66 1
    59   25   67 1
    60   26   27 2
    61   26   28 1
    62   28   33 ar
    63   28   29 ar
    64   29   30 ar
    65   29   68 1
    66   30   31 ar
    67   30   69 1
    68   31   32 ar
    69   31   70 1
    70   32   33 ar
    71   32   71 1
    72   33   34 1
@<TRIPOS>MOLECULE
ZINC39912971
   68    71     0     0     0
SMALL
USER_CHARGES

@<TRIPOS>ATOM
      1 C1         -0.0187    1.5258    0.0104 C.3       1 <0>        -0.1544
      2 C2          0.0021   -0.0041    0.0020 C.3       1 <0>        -0.1242
      3 C3          0.7182   -0.4975   -1.2568 C.3       1 <0>        -0.1173
      4 C4          0.7390   -2.0273   -1.2652 C.3       1 <0>        -0.1189
      5 C5          1.4551   -2.5207   -2.5240 C.3       1 <0>         0.0572
      6 O1          1.4745   -3.9496   -2.5319 O.3       1 <0>        -0.3016
      7 C6          2.0786   -4.5530   -3.5903 C.ar      1 <0>         0.1150
      8 C7          2.6453   -3.7866   -4.5960 C.ar      1 <0>        -0.1731
      9 C8          3.2594   -4.4016   -5.6710 C.ar      1 <0>        -0.0939
     10 C9          3.3096   -5.7811   -5.7460 C.ar      1 <0>        -0.0991
     11 C10         2.7458   -6.5517   -4.7463 C.ar      1 <0>        -0.1403
     12 C11         2.1341   -5.9416   -3.6629 C.ar      1 <0>         0.1064
     13 O2          1.5843   -6.6981   -2.6756 O.3       1 <0>        -0.3022
     14 C12         1.6788   -8.1170   -2.8166 C.3       1 <0>         0.0522
     15 C13         1.0094   -8.7943   -1.6191 C.3       1 <0>        -0.1517
     16 C14         3.9799   -6.4464   -6.9204 C.3       1 <0>         0.2346
     17 H1          4.2342   -7.4771   -6.6733 H         1 <0>         0.1167
     18 C15         3.0835   -6.4089   -8.1143 C.2       1 <0>        -0.2473
     19 C16         1.7523   -6.9811   -8.3416 C.2       1 <0>         0.4580
     20 O3          1.0755   -7.4691   -7.4538 O.2       1 <0>        -0.4272
     21 C17         1.3078   -6.9085   -9.7564 C.ar      1 <0>        -0.2097
     22 C18         0.1593   -7.5828  -10.1708 C.ar      1 <0>        -0.0163
     23 C19        -0.2355   -7.5085  -11.4889 C.ar      1 <0>        -0.0667
     24 C20         0.5085   -6.7661  -12.3972 C.ar      1 <0>        -0.0088
     25 C21         1.6426   -6.0960  -11.9987 C.ar      1 <0>        -0.1271
     26 C22         2.0612   -6.1529  -10.6695 C.ar      1 <0>         0.1538
     27 O4          3.1737   -5.4761  -10.3027 O.3       1 <0>        -0.1785
     28 C23         3.7216   -5.7002   -9.0922 C.2       1 <0>         0.0924
     29 C24         5.0312   -5.2703   -8.5716 C.2       1 <0>         0.5746
     30 O5          5.8489   -4.6222   -9.1941 O.2       1 <0>        -0.4696
     31 N1          5.1912   -5.7021   -7.3023 N.am      1 <0>        -0.5901
     32 C25         6.3624   -5.4701   -6.4534 C.3       1 <0>         0.1429
     33 C26         7.3656   -6.6090   -6.6462 C.3       1 <0>         0.0373
     34 O6          7.8600   -6.5865   -7.9868 O.3       1 <0>        -0.3792
     35 C27         8.8093   -7.6154   -8.2736 C.3       1 <0>         0.0316
     36 C28         0.0686   -6.6940  -13.8368 C.3       1 <0>        -0.1286
     37 Cl1        -1.6636   -8.3438  -12.0149 Cl        1 <0>        -0.0453
     38 H2          1.0039    1.9031    0.0027 H         1 <0>         0.0541
     39 H3         -0.5459    1.8868   -0.8726 H         1 <0>         0.0541
     40 H4         -0.5289    1.8773    0.9072 H         1 <0>         0.0554
     41 H5          0.5293   -0.3651    0.8851 H         1 <0>         0.0633
     42 H6         -1.0205   -0.3814    0.0098 H         1 <0>         0.0633
     43 H7          0.1910   -0.1364   -2.1398 H         1 <0>         0.0651
     44 H8          1.7408   -0.1202   -1.2645 H         1 <0>         0.0651
     45 H9          1.2661   -2.3884   -0.3821 H         1 <0>         0.0746
     46 H10        -0.2836   -2.4046   -1.2575 H         1 <0>         0.0746
     47 H11         0.9279   -2.1597   -3.4071 H         1 <0>         0.0617
     48 H12         2.4777   -2.1435   -2.5317 H         1 <0>         0.0622
     49 H13         2.6068   -2.7087   -4.5402 H         1 <0>         0.1372
     50 H14         3.7007   -3.8030   -6.4542 H         1 <0>         0.1225
     51 H15         2.7860   -7.6292   -4.8074 H         1 <0>         0.1383
     52 H16         1.1784   -8.4250   -3.7347 H         1 <0>         0.0647
     53 H17         2.7282   -8.4088   -2.8593 H         1 <0>         0.0604
     54 H18         1.5098   -8.4863   -0.7010 H         1 <0>         0.0662
     55 H19        -0.0399   -8.5024   -1.5764 H         1 <0>         0.0670
     56 H20         1.0815   -9.8765   -1.7266 H         1 <0>         0.0786
     57 H21        -0.4169   -8.1600   -9.4628 H         1 <0>         0.1562
     58 H22         2.2102   -5.5237  -12.7176 H         1 <0>         0.1574
     59 H23         6.8291   -4.5243   -6.7287 H         1 <0>         0.1026
     60 H24         6.0524   -5.4319   -5.4091 H         1 <0>         0.1083
     61 H25         8.1956   -6.4838   -5.9508 H         1 <0>         0.0682
     62 H26         6.8734   -7.5629   -6.4564 H         1 <0>         0.0544
     63 H27         9.6692   -7.5110   -7.6119 H         1 <0>         0.0425
     64 H28         8.3470   -8.5901   -8.1176 H         1 <0>         0.0395
     65 H29         9.1359   -7.5298   -9.3100 H         1 <0>         0.0871
     66 H30        -0.6038   -5.8464  -13.9693 H         1 <0>         0.0888
     67 H31         0.9415   -6.5690  -14.4776 H         1 <0>         0.0817
     68 H32        -0.4500   -7.6145  -14.1048 H         1 <0>         0.0832
@<TRIPOS>BOND
     1    1    2 1
     2    1   38 1
     3    1   39 1
     4    1   40 1
     5    2    3 1
     6    2   41 1
     7    2   42 1
     8    3    4 1
     9    3   43 1
    10    3   44 1
    11    4    5 1
    12    4   45 1
    13    4   46 1
    14    5    6 1
    15    5   47 1
    16    5   48 1
    17    6    7 1
    18    7   12 ar
    19    7    8 ar
    20    8    9 ar
    21    8   49 1
    22    9   10 ar
    23    9   50 1
    24   10   11 ar
    25   10   16 1
    26   11   12 ar
    27   11   51 1
    28   12   13 1
    29   13   14 1
    30   14   15 1
    31   14   52 1
    32   14   53 1
    33   15   54 1
    34   15   55 1
    35   15   56 1
    36   16   17 1
    37   16   31 1
    38   16   18 1
    39   18   28 2
    40   18   19 1
    41   19   20 2
    42   19   21 1
    43   21   26 ar
    44   21   22 ar
    45   22   23 ar
    46   22   57 1
    47   23   24 ar
    48   23   37 1
    49   24   25 ar
    50   24   36 1
    51   25   26 ar
    52   25   58 1
    53   26   27 1
    54   27   28 1
    55   28   29 1
    56   29   30 2
    57   29   31 am
    58   31   32 1
    59   32   33 1
    60   32   59 1
    61   32   60 1
    62   33   34 1
    63   33   61 1
    64   33   62 1
    65   34   35 1
    66   35   63 1
    67   35   64 1
    68   35   65 1
    69   36   66 1
    70   36   67 1
    71   36   68 1
@<TRIPOS>MOLECULE
ZINC33897788
   67    70     0     0     0
SMALL
USER_CHARGES

@<TRIPOS>ATOM
      1 C1          1.7833   -4.3422    2.7962 C.3       1 <0>        -0.1545
      2 C2          1.2483   -3.4278    1.6924 C.3       1 <0>        -0.1247
      3 C3          1.8873   -3.8129    0.3567 C.3       1 <0>        -0.1248
      4 C4          1.3523   -2.8985   -0.7472 C.3       1 <0>        -0.1131
      5 C5          2.0848   -3.1974   -2.0568 C.3       1 <0>        -0.0998
      6 H1          3.1587   -3.0883   -1.9055 H         1 <0>         0.0771
      7 C6          1.6196   -2.2181   -3.1363 C.3       1 <0>        -0.1211
      8 C7          2.0190   -0.7952   -2.7404 C.3       1 <0>        -0.1540
      9 C8          1.7749   -4.6289   -2.4991 C.3       1 <0>         0.1242
     10 N1          2.5682   -4.9557   -3.6866 N.am      1 <0>        -0.7264
     11 C9          2.4590   -6.1722   -4.2562 C.2       1 <0>         0.5927
     12 O1          1.7018   -6.9988   -3.7844 O.2       1 <0>        -0.5490
     13 C10         3.2566   -6.5007   -5.4502 C.2       1 <0>        -0.2311
     14 C11         4.1824   -5.6489   -6.1087 C.2       1 <0>        -0.1030
     15 C12         4.6899   -6.3466   -7.1566 C.2       1 <0>         0.0567
     16 N2          4.1140   -7.5927   -7.1693 N.pl3     1 <0>        -0.4212
     17 C13         3.2509   -7.6948   -6.1370 C.2       1 <0>         0.1242
     18 C14         2.4211   -8.9057   -5.7961 C.3       1 <0>        -0.0964
     19 C15         4.3966   -8.6475   -8.1459 C.3       1 <0>         0.1749
     20 C16         5.5986   -9.4383   -7.6975 C.2       1 <0>        -0.2019
     21 C17         5.6491  -10.5472   -6.9197 C.2       1 <0>        -0.1140
     22 C18         6.8787  -11.1109   -6.6350 C.2       1 <0>        -0.1648
     23 C19         7.9976  -10.5380   -7.1420 C.2       1 <0>        -0.1644
     24 S1          7.3248   -9.1621   -8.0593 S.3       1 <0>         0.0638
     25 C20         5.6937   -5.8480   -8.1226 C.2       1 <0>         0.1536
     26 C21         6.2281   -6.6913   -9.0642 C.2       1 <0>        -0.2336
     27 S2          7.3374   -5.5767   -9.9155 S.3       1 <0>         0.0356
     28 C22         6.9802   -4.1205   -8.9424 C.2       1 <0>         0.1734
     29 N3          6.0804   -4.5858   -8.0908 N.2       1 <0>        -0.4853
     30 C23         7.5384   -2.7563   -9.0607 C.ar      1 <0>        -0.0229
     31 C24         7.1242   -1.7513   -8.1856 C.ar      1 <0>        -0.0666
     32 C25         7.6492   -0.4807   -8.3011 C.ar      1 <0>        -0.1206
     33 C26         8.5844   -0.2019   -9.2818 C.ar      1 <0>        -0.0963
     34 C27         8.9993   -1.1938  -10.1526 C.ar      1 <0>        -0.1181
     35 C28         8.4860   -2.4698  -10.0444 C.ar      1 <0>        -0.0895
     36 H2          1.5376   -5.3778    2.5611 H         1 <0>         0.0538
     37 H3          2.8655   -4.2325    2.8662 H         1 <0>         0.0529
     38 H4          1.3280   -4.0679    3.7478 H         1 <0>         0.0530
     39 H5          0.1661   -3.5375    1.6224 H         1 <0>         0.0608
     40 H6          1.4940   -2.3922    1.9276 H         1 <0>         0.0600
     41 H7          2.9695   -3.7032    0.4266 H         1 <0>         0.0615
     42 H8          1.6416   -4.8485    0.1215 H         1 <0>         0.0648
     43 H9          0.2848   -3.0748   -0.8794 H         1 <0>         0.0652
     44 H10         1.5168   -1.8577   -0.4683 H         1 <0>         0.0708
     45 H11         2.0874   -2.4757   -4.0865 H         1 <0>         0.0623
     46 H12         0.5359   -2.2765   -3.2373 H         1 <0>         0.0645
     47 H13         3.0915   -0.7587   -2.5495 H         1 <0>         0.0541
     48 H14         1.7705   -0.1094   -3.5503 H         1 <0>         0.0538
     49 H15         1.4794   -0.5038   -1.8392 H         1 <0>         0.0567
     50 H16         2.0245   -5.3201   -1.6940 H         1 <0>         0.0702
     51 H17         0.7144   -4.7146   -2.7358 H         1 <0>         0.0668
     52 H18         3.1721   -4.2964   -4.0628 H         1 <0>         0.3995
     53 H19         4.4348   -4.6368   -5.8289 H         1 <0>         0.1490
     54 H20         1.4645   -8.8485   -6.3153 H         1 <0>         0.0813
     55 H21         2.9495   -9.8073   -6.1061 H         1 <0>         0.0632
     56 H22         2.2493   -8.9372   -4.7202 H         1 <0>         0.1053
     57 H23         3.5346   -9.3100   -8.2248 H         1 <0>         0.1221
     58 H24         4.5995   -8.1979   -9.1179 H         1 <0>         0.1130
     59 H25         4.7422  -10.9837   -6.5281 H         1 <0>         0.1362
     60 H26         6.9468  -11.9943   -6.0176 H         1 <0>         0.1377
     61 H27         9.0284  -10.8383   -7.0248 H         1 <0>         0.1877
     62 H28         6.0330   -7.7386   -9.2416 H         1 <0>         0.1961
     63 H29         6.3940   -1.9676   -7.4198 H         1 <0>         0.1369
     64 H30         7.3292    0.2980   -7.6247 H         1 <0>         0.1323
     65 H31         8.9921    0.7944   -9.3683 H         1 <0>         0.1296
     66 H32         9.7294   -0.9697  -10.9162 H         1 <0>         0.1324
     67 H33         8.8139   -3.2444  -10.7219 H         1 <0>         0.1273
@<TRIPOS>BOND
     1    1    2 1
     2    1   36 1
     3    1   37 1
     4    1   38 1
     5    2    3 1
     6    2   39 1
     7    2   40 1
     8    3    4 1
     9    3   41 1
    10    3   42 1
    11    4    5 1
    12    4   43 1
    13    4   44 1
    14    5    6 1
    15    5    7 1
    16    5    9 1
    17    7    8 1
    18    7   45 1
    19    7   46 1
    20    8   47 1
    21    8   48 1
    22    8   49 1
    23    9   10 1
    24    9   50 1
    25    9   51 1
    26   10   11 am
    27   10   52 1
    28   11   12 2
    29   11   13 1
    30   13   17 2
    31   13   14 1
    32   14   15 2
    33   14   53 1
    34   15   16 1
    35   15   25 1
    36   16   17 1
    37   16   19 1
    38   17   18 1
    39   18   54 1
    40   18   55 1
    41   18   56 1
    42   19   20 1
    43   19   57 1
    44   19   58 1
    45   20   24 1
    46   20   21 2
    47   21   22 1
    48   21   59 1
    49   22   23 2
    50   22   60 1
    51   23   24 1
    52   23   61 1
    53   25   29 1
    54   25   26 2
    55   26   27 1
    56   26   62 1
    57   27   28 1
    58   28   29 2
    59   28   30 1
    60   30   35 ar
    61   30   31 ar
    62   31   32 ar
    63   31   63 1
    64   32   33 ar
    65   32   64 1
    66   33   34 ar
    67   33   65 1
    68   34   35 ar
    69   34   66 1
    70   35   67 1
@<TRIPOS>MOLECULE
ZINC08232317
   54    57     0     0     0
SMALL
USER_CHARGES
1-(1-cyclopropyl-2,5-dimethyl-pyrrol-3-yl)-2-[[4-(2-methoxyethyl)-5-(4-pyridyl)-1,2,4-triazol-3-yl]sulfanyl]ethanone
@<TRIPOS>ATOM
      1 C1         -0.9843   -6.4573    8.0417 C.3       1 <0>        -0.0857
      2 C2         -1.6835   -5.8663    6.8447 C.2       1 <0>         0.0147
      3 C3         -1.3205   -4.7400    6.2084 C.2       1 <0>        -0.1504
      4 C4         -2.2840   -4.5536    5.1153 C.2       1 <0>        -0.2687
      5 C5         -3.1564   -5.6229    5.1937 C.2       1 <0>         0.1282
      6 N1         -2.7823   -6.3938    6.2303 N.pl3     1 <0>        -0.4079
      7 C6         -3.4592   -7.6260    6.6423 C.3       1 <0>         0.0371
      8 C7         -2.5877   -8.8539    6.9138 C.3       1 <0>        -0.1643
      9 C8         -3.4586   -8.7959    5.6563 C.3       1 <0>        -0.1679
     10 C9         -4.3239   -5.8805    4.2764 C.3       1 <0>        -0.0966
     11 C10        -2.3110   -3.4623    4.1390 C.2       1 <0>         0.4487
     12 O1         -3.1679   -3.4376    3.2802 O.2       1 <0>        -0.4590
     13 C11        -1.2745   -2.3701    4.2009 C.3       1 <0>        -0.1466
     14 S1         -1.5734   -1.1786    2.8716 S.3       1 <0>         0.0646
     15 C12        -0.2568   -0.0471    3.1732 C.2       1 <0>         0.1572
     16 N2          0.6455   -0.1361    4.1263 N.2       1 <0>        -0.2852
     17 N3          1.4549    0.8601    4.0616 N.2       1 <0>        -0.2510
     18 C13         1.1231    1.6423    3.0606 C.2       1 <0>         0.2163
     19 N4          0.0190    1.0826    2.4591 N.pl3     1 <0>        -0.4509
     20 C14        -0.7119    1.5962    1.2980 C.3       1 <0>         0.0949
     21 C15        -0.1513    0.9645    0.0222 C.3       1 <0>         0.0417
     22 O2         -0.8642    1.4654   -1.1104 O.3       1 <0>        -0.3827
     23 C16        -0.4166    0.9357   -2.3598 C.3       1 <0>         0.0312
     24 C17         1.8069    2.8882    2.6557 C.ar      1 <0>         0.0307
     25 C18         1.6163    3.4316    1.3792 C.ar      1 <0>        -0.1762
     26 C19         2.2702    4.5988    1.0453 C.ar      1 <0>         0.1105
     27 N5          3.0735    5.1957    1.9056 N.ar      1 <0>        -0.4757
     28 C20         3.2850    4.7150    3.1163 C.ar      1 <0>         0.1089
     29 C21         2.6679    3.5554    3.5358 C.ar      1 <0>        -0.1294
     30 H1         -0.2678   -7.2086    7.7097 H         1 <0>         0.0707
     31 H2         -0.4600   -5.6690    8.5820 H         1 <0>         0.0822
     32 H3         -1.7192   -6.9216    8.6993 H         1 <0>         0.0671
     33 H4         -0.4875   -4.0979    6.4535 H         1 <0>         0.1510
     34 H5         -4.3454   -7.4908    7.2624 H         1 <0>         0.1352
     35 H6         -1.5107   -8.7449    6.7858 H         1 <0>         0.1067
     36 H7         -2.9007   -9.5267    7.7122 H         1 <0>         0.1144
     37 H8         -4.3443   -9.4306    5.6280 H         1 <0>         0.1140
     38 H9         -2.9550   -8.6486    4.7009 H         1 <0>         0.1041
     39 H10        -3.9955   -6.4856    3.4314 H         1 <0>         0.0800
     40 H11        -5.1043   -6.4113    4.8218 H         1 <0>         0.0682
     41 H12        -4.7166   -4.9310    3.9126 H         1 <0>         0.0986
     42 H13        -0.3637   -2.7685    4.0929 H         1 <0>         0.1154
     43 H14        -1.3376   -1.8635    5.1640 H         1 <0>         0.1313
     44 H15        -0.5987    2.6791    1.2473 H         1 <0>         0.1179
     45 H16        -1.7684    1.3454    1.3937 H         1 <0>         0.1156
     46 H17        -0.2645   -0.1184    0.0730 H         1 <0>         0.0674
     47 H18         0.9051    1.2153   -0.0734 H         1 <0>         0.0615
     48 H19        -0.5353   -0.1478   -2.3585 H         1 <0>         0.0474
     49 H20        -1.0074    1.3650   -3.1690 H         1 <0>         0.0952
     50 H21         0.6343    1.1859   -2.5049 H         1 <0>         0.0458
     51 H22         0.9643    2.9459    0.6684 H         1 <0>         0.1424
     52 H23         2.1266    5.0279    0.0647 H         1 <0>         0.1640
     53 H24         3.9508    5.2368    3.7877 H         1 <0>         0.1668
     54 H25         2.8457    3.1678    4.5280 H         1 <0>         0.1502
@<TRIPOS>BOND
     1    1    2 1
     2    1   30 1
     3    1   31 1
     4    1   32 1
     5    2    6 1
     6    2    3 2
     7    3    4 1
     8    3   33 1
     9    4    5 2
    10    4   11 1
    11    5    6 1
    12    5   10 1
    13    6    7 1
    14    7    9 1
    15    7    8 1
    16    7   34 1
    17    8    9 1
    18    8   35 1
    19    8   36 1
    20    9   37 1
    21    9   38 1
    22   10   39 1
    23   10   40 1
    24   10   41 1
    25   11   12 2
    26   11   13 1
    27   13   14 1
    28   13   42 1
    29   13   43 1
    30   14   15 1
    31   15   19 1
    32   15   16 2
    33   16   17 1
    34   17   18 2
    35   18   19 1
    36   18   24 1
    37   19   20 1
    38   20   21 1
    39   20   44 1
    40   20   45 1
    41   21   22 1
    42   21   46 1
    43   21   47 1
    44   22   23 1
    45   23   48 1
    46   23   49 1
    47   23   50 1
    48   24   29 ar
    49   24   25 ar
    50   25   26 ar
    51   25   51 1
    52   26   27 ar
    53   26   52 1
    54   27   28 ar
    55   28   29 ar
    56   28   53 1
    57   29   54 1
@<TRIPOS>MOLECULE
ZINC20202610
   56    58     0     0     0
SMALL
USER_CHARGES
N-methyl-N-(4-morpholinobutyl)-1-[[3-(trifluoromethyl)phenyl]methyl]triazole-4-carboxamide
@<TRIPOS>ATOM
      1 C1          0.3893    7.1896   -5.7981 C.3       1 <0>         0.0247
      2 N1         -0.8139    7.9199   -5.3918 N.am      1 <0>        -0.5981
      3 C2         -1.3167    9.0205   -6.2179 C.3       1 <0>         0.1135
      4 C3         -0.6765   10.3334   -5.7626 C.3       1 <0>        -0.1325
      5 C4         -1.2015   11.4828   -6.6253 C.3       1 <0>        -0.1133
      6 C5         -0.5614   12.7958   -6.1701 C.3       1 <0>         0.0555
      7 N2         -1.0655   13.8993   -6.9983 N.3       1 <0>        -0.5372
      8 C6         -0.6138   13.7620   -8.3906 C.3       1 <0>         0.0131
      9 C7         -1.2092   14.8964   -9.2288 C.3       1 <0>         0.0606
     10 O1         -0.8317   16.1524   -8.6586 O.3       1 <0>        -0.3856
     11 C8         -1.2561   16.3202   -7.3032 C.3       1 <0>         0.0613
     12 C9         -0.6612   15.2002   -6.4455 C.3       1 <0>         0.0160
     13 C10        -1.4584    7.5793   -4.2582 C.2       1 <0>         0.6024
     14 O2         -2.4905    8.1448   -3.9522 O.2       1 <0>        -0.5361
     15 C11        -0.9117    6.5205   -3.3886 C.2       1 <0>        -0.0966
     16 C12        -1.3933    6.1687   -2.1597 C.2       1 <0>         0.0980
     17 N3         -0.6142    5.1657   -1.7074 N.pl3     1 <0>        -0.3549
     18 N4          0.3528    4.9268   -2.6942 N.2       1 <0>        -0.0540
     19 N5          0.1441    5.7385   -3.6717 N.2       1 <0>        -0.2058
     20 C13        -0.7482    4.4647   -0.4280 C.3       1 <0>         0.1613
     21 C14        -0.8612    2.9826   -0.6768 C.ar      1 <0>        -0.1227
     22 C15         0.2780    2.2004   -0.7223 C.ar      1 <0>        -0.0494
     23 C16         0.1743    0.8411   -0.9495 C.ar      1 <0>        -0.1191
     24 C17        -1.0687    0.2634   -1.1309 C.ar      1 <0>        -0.0557
     25 C18        -2.2071    1.0462   -1.0907 C.ar      1 <0>        -0.1847
     26 C19        -2.1036    2.4053   -0.8590 C.ar      1 <0>        -0.0468
     27 C20        -3.5614    0.4175   -1.2947 C.3       1 <0>         0.5085
     28 F1         -3.4104   -0.9573   -1.5051 F         1 <0>        -0.1748
     29 F2         -4.3506    0.6316   -0.1596 F         1 <0>        -0.1748
     30 F3         -4.1804    0.9946   -2.4087 F         1 <0>        -0.1747
     31 H1          0.6097    6.4057   -5.0585 H         1 <0>         0.1441
     32 H2          1.2384    7.8864   -5.8580 H         1 <0>         0.0558
     33 H3          0.2232    6.7284   -6.7828 H         1 <0>         0.0584
     34 H4         -1.0617    8.8342   -7.2716 H         1 <0>         0.0799
     35 H5         -2.4094    9.0891   -6.1117 H         1 <0>         0.0885
     36 H6         -0.9315   10.5196   -4.7089 H         1 <0>         0.0682
     37 H7          0.4162   10.2647   -5.8687 H         1 <0>         0.0630
     38 H8         -0.9464   11.2965   -7.6790 H         1 <0>         0.0643
     39 H9         -2.2942   11.5515   -6.5192 H         1 <0>         0.0762
     40 H10        -0.8164   12.9821   -5.1164 H         1 <0>         0.0771
     41 H11         0.5313   12.7272   -6.2763 H         1 <0>         0.0347
     42 H12         0.4844   13.8143   -8.4266 H         1 <0>         0.0424
     43 H13        -0.9481   12.7934   -8.7907 H         1 <0>         0.0902
     44 H14        -0.8287   14.8299  -10.2588 H         1 <0>         0.0994
     45 H15        -2.3058   14.8099   -9.2367 H         1 <0>         0.0610
     46 H16        -0.9100   17.2948   -6.9286 H         1 <0>         0.0997
     47 H17        -2.3542   16.2778   -7.2549 H         1 <0>         0.0612
     48 H18        -1.0304   15.2907   -5.4133 H         1 <0>         0.0874
     49 H19         0.4362   15.2756   -6.4503 H         1 <0>         0.0427
     50 H20        -2.2364    6.6094   -1.6485 H         1 <0>         0.2072
     51 H21         0.1361    4.6657    0.1946 H         1 <0>         0.1174
     52 H22        -1.6506    4.8192    0.0916 H         1 <0>         0.1223
     53 H23         1.2488    2.6516   -0.5798 H         1 <0>         0.1391
     54 H24         1.0641    0.2301   -0.9850 H         1 <0>         0.1423
     55 H25        -1.1497   -0.7988   -1.3084 H         1 <0>         0.1434
     56 H26        -2.9935    3.0162   -0.8232 H         1 <0>         0.1357
@<TRIPOS>BOND
     1    1    2 1
     2    1   31 1
     3    1   32 1
     4    1   33 1
     5    2    3 1
     6    2   13 am
     7    3    4 1
     8    3   34 1
     9    3   35 1
    10    4    5 1
    11    4   36 1
    12    4   37 1
    13    5    6 1
    14    5   38 1
    15    5   39 1
    16    6    7 1
    17    6   40 1
    18    6   41 1
    19    7   12 1
    20    7    8 1
    21    8    9 1
    22    8   42 1
    23    8   43 1
    24    9   10 1
    25    9   44 1
    26    9   45 1
    27   10   11 1
    28   11   12 1
    29   11   46 1
    30   11   47 1
    31   12   48 1
    32   12   49 1
    33   13   14 2
    34   13   15 1
    35   15   19 1
    36   15   16 2
    37   16   17 1
    38   16   50 1
    39   17   18 1
    40   17   20 1
    41   18   19 2
    42   20   21 1
    43   20   51 1
    44   20   52 1
    45   21   26 ar
    46   21   22 ar
    47   22   23 ar
    48   22   53 1
    49   23   24 ar
    50   23   54 1
    51   24   25 ar
    52   24   55 1
    53   25   26 ar
    54   25   27 1
    55   26   56 1
    56   27   28 1
    57   27   29 1
    58   27   30 1
@<TRIPOS>MOLECULE
ZINC36006416
   59    60     0     0     0
SMALL
USER_CHARGES

@<TRIPOS>ATOM
      1 C1         -4.6130    4.8889   -0.6237 C.3       1 <0>        -0.1528
      2 C2         -3.9485    3.7244    0.1134 C.3       1 <0>         0.0610
      3 O1         -4.6583    2.5162   -0.1668 O.3       1 <0>        -0.3574
      4 C3         -4.1979    1.3876    0.4105 C.2       1 <0>         0.5388
      5 O2         -3.2201    1.4291    1.1322 O.2       1 <0>        -0.4929
      6 C4         -4.8766    0.1102    0.1679 C.2       1 <0>        -0.0582
      7 C5         -4.5177   -1.0959    0.6923 C.2       1 <0>        -0.0120
      8 C6         -5.4384   -2.0512    0.1994 C.2       1 <0>        -0.2660
      9 C7         -6.3301   -1.3711   -0.6159 C.2       1 <0>         0.1458
     10 N1         -5.9897   -0.0742   -0.6247 N.pl3     1 <0>        -0.4082
     11 C8         -6.6882    0.9805   -1.3637 C.3       1 <0>         0.0587
     12 C9         -7.4880   -1.9841   -1.3605 C.3       1 <0>        -0.0997
     13 C10        -5.4472   -3.4874    0.4945 C.2       1 <0>         0.4193
     14 O3         -6.3605   -4.1820    0.1006 O.2       1 <0>        -0.4354
     15 C11        -4.3218   -4.1006    1.2872 C.3       1 <0>         0.1032
     16 H1         -4.0326   -3.4237    2.0911 H         1 <0>         0.1182
     17 C12        -3.1229   -4.3422    0.3679 C.3       1 <0>        -0.1689
     18 N2         -4.7643   -5.3753    1.8578 N.am      1 <0>        -0.6057
     19 C13        -4.7829   -5.5603    3.3109 C.3       1 <0>         0.1861
     20 C14        -6.0513   -4.9745    3.8757 C.2       1 <0>        -0.0422
     21 C15        -7.2129   -5.6308    4.0468 C.2       1 <0>        -0.1890
     22 C16        -8.1282   -4.7062    4.6000 C.2       1 <0>        -0.2136
     23 C17        -7.4712   -3.5401    4.7339 C.2       1 <0>        -0.0323
     24 O4         -6.2120   -3.7101    4.2990 O.3       1 <0>        -0.1712
     25 C18        -5.1544   -6.3778    1.0458 C.2       1 <0>         0.5316
     26 O5         -5.0578   -6.2564   -0.1571 O.2       1 <0>        -0.5080
     27 C19        -5.7106   -7.6496    1.6325 C.3       1 <0>        -0.1193
     28 C20        -6.6158   -8.3321    0.6049 C.3       1 <0>        -0.1334
     29 C21        -4.5593   -8.5876    2.0006 C.3       1 <0>        -0.1461
     30 C22        -3.3603   -1.3617    1.6200 C.3       1 <0>        -0.1213
     31 H2         -4.0716    5.8105   -0.4099 H         1 <0>         0.0822
     32 H3         -4.5950    4.6974   -1.6966 H         1 <0>         0.0667
     33 H4         -5.6458    4.9884   -0.2896 H         1 <0>         0.0662
     34 H5         -2.9158    3.6248   -0.2206 H         1 <0>         0.0704
     35 H6         -3.9665    3.9159    1.1863 H         1 <0>         0.0700
     36 H7         -6.2554    1.0740   -2.3597 H         1 <0>         0.0840
     37 H8         -7.7446    0.7257   -1.4490 H         1 <0>         0.0906
     38 H9         -6.5844    1.9264   -0.8321 H         1 <0>         0.1048
     39 H10        -8.3775   -1.9620   -0.7309 H         1 <0>         0.0856
     40 H11        -7.6744   -1.4172   -2.2727 H         1 <0>         0.0713
     41 H12        -7.2496   -3.0164   -1.6167 H         1 <0>         0.1035
     42 H13        -2.8348   -3.4046   -0.1075 H         1 <0>         0.0738
     43 H14        -2.2870   -4.7245    0.9537 H         1 <0>         0.0692
     44 H15        -3.3929   -5.0697   -0.3977 H         1 <0>         0.0901
     45 H16        -4.7398   -6.6246    3.5423 H         1 <0>         0.1195
     46 H17        -3.9224   -5.0574    3.7522 H         1 <0>         0.0985
     47 H18        -7.4089   -6.6655    3.8069 H         1 <0>         0.1478
     48 H19        -9.1575   -4.8990    4.8641 H         1 <0>         0.1487
     49 H20        -7.8850   -2.6236    5.1281 H         1 <0>         0.2018
     50 H21        -6.2883   -7.4151    2.5265 H         1 <0>         0.0903
     51 H22        -7.0181   -9.2519    1.0293 H         1 <0>         0.0616
     52 H23        -7.4360   -7.6638    0.3426 H         1 <0>         0.0593
     53 H24        -6.0381   -8.5666   -0.2892 H         1 <0>         0.0669
     54 H25        -3.9142   -8.1013    2.7323 H         1 <0>         0.0594
     55 H26        -4.9616   -9.5073    2.4254 H         1 <0>         0.0707
     56 H27        -3.9819   -8.8225    1.1065 H         1 <0>         0.0655
     57 H28        -3.7109   -1.3464    2.6520 H         1 <0>         0.0793
     58 H29        -2.9321   -2.3388    1.3962 H         1 <0>         0.0820
     59 H30        -2.6007   -0.5921    1.4830 H         1 <0>         0.0913
@<TRIPOS>BOND
     1    1    2 1
     2    1   31 1
     3    1   32 1
     4    1   33 1
     5    2    3 1
     6    2   34 1
     7    2   35 1
     8    3    4 1
     9    4    5 2
    10    4    6 1
    11    6   10 1
    12    6    7 2
    13    7    8 1
    14    7   30 1
    15    8    9 2
    16    8   13 1
    17    9   10 1
    18    9   12 1
    19   10   11 1
    20   11   36 1
    21   11   37 1
    22   11   38 1
    23   12   39 1
    24   12   40 1
    25   12   41 1
    26   13   14 2
    27   13   15 1
    28   15   16 1
    29   15   17 1
    30   15   18 1
    31   17   42 1
    32   17   43 1
    33   17   44 1
    34   18   19 1
    35   18   25 am
    36   19   20 1
    37   19   45 1
    38   19   46 1
    39   20   24 1
    40   20   21 2
    41   21   22 1
    42   21   47 1
    43   22   23 2
    44   22   48 1
    45   23   24 1
    46   23   49 1
    47   25   26 2
    48   25   27 1
    49   27   28 1
    50   27   29 1
    51   27   50 1
    52   28   51 1
    53   28   52 1
    54   28   53 1
    55   29   54 1
    56   29   55 1
    57   29   56 1
    58   30   57 1
    59   30   58 1
    60   30   59 1
@<TRIPOS>MOLECULE
ZINC12056702
   56    59     0     0     0
SMALL
USER_CHARGES

@<TRIPOS>ATOM
      1 C1         -0.0184    1.5028    0.0103 C.3       1 <0>        -0.2007
      2 C2          0.0021   -0.0041    0.0020 C.2       1 <0>         0.4294
      3 O1          0.0204   -0.6170    1.0505 O.2       1 <0>        -0.4404
      4 C3         -0.0000   -0.7034   -1.2246 C.2       1 <0>        -0.2410
      5 C4          0.0109   -2.0784   -1.4482 C.2       1 <0>        -0.0719
      6 C5          0.0054   -2.5314   -2.7333 C.2       1 <0>        -0.1018
      7 C6         -0.0108   -1.6044   -3.7692 C.2       1 <0>        -0.0925
      8 S1         -0.0252   -0.0525   -2.8868 S.3       1 <0>         0.1948
      9 C7         -0.0195   -1.8415   -5.2208 C.2       1 <0>         0.2371
     10 N1         -0.0191   -3.0119   -5.8202 N.2       1 <0>        -0.2473
     11 N2         -0.0289   -2.8347   -7.0945 N.2       1 <0>        -0.2726
     12 C8         -0.0360   -1.5563   -7.3575 C.2       1 <0>         0.1808
     13 O2         -0.0354   -0.8989   -6.1858 O.3       1 <0>        -0.2144
     14 C9         -0.0483   -0.9305   -8.7283 C.3       1 <0>        -0.0101
     15 C10        -1.4950   -0.7240   -9.1816 C.3       1 <0>        -0.1426
     16 C11        -1.5073   -0.0981  -10.5525 C.2       1 <0>         0.5188
     17 O3         -0.4620    0.1575  -11.1118 O.2       1 <0>        -0.5280
     18 N3         -2.6800    0.1775  -11.1569 N.am      1 <0>        -0.6002
     19 C12        -3.9427   -0.1314  -10.4813 C.3       1 <0>         0.0954
     20 C13        -4.3827    1.0733   -9.6470 C.3       1 <0>         0.0615
     21 H1         -3.5805    1.3668   -8.9698 H         1 <0>         0.0806
     22 C14        -5.6473    0.7156   -8.8369 C.3       1 <0>        -0.1514
     23 C15        -6.4786    2.0242   -8.9289 C.3       1 <0>        -0.1561
     24 C16        -6.1011    2.5133  -10.3498 C.3       1 <0>         0.0475
     25 O4         -4.7144    2.1671  -10.5102 O.3       1 <0>        -0.3704
     26 C17        -2.6920    0.7859  -12.4895 C.3       1 <0>         0.1281
     27 C18        -2.6958   -0.3146  -13.5525 C.3       1 <0>        -0.1283
     28 C19        -1.2892   -0.7951  -13.9467 C.3       1 <0>        -0.1264
     29 C20        -1.7991   -0.8476  -15.3966 C.3       1 <0>        -0.1459
     30 C21        -2.8311    0.2172  -14.9891 C.3       1 <0>        -0.1320
     31 H2          1.0042    1.8801    0.0026 H         1 <0>         0.1040
     32 H3         -0.5455    1.8639   -0.8728 H         1 <0>         0.0829
     33 H4         -0.5286    1.8543    0.9071 H         1 <0>         0.0976
     34 H5          0.0237   -2.7712   -0.6198 H         1 <0>         0.1595
     35 H6          0.0138   -3.5908   -2.9431 H         1 <0>         0.1598
     36 H7          0.4622    0.0319   -8.6930 H         1 <0>         0.1110
     37 H8          0.4627   -1.5873   -9.4322 H         1 <0>         0.1265
     38 H9         -2.0056   -1.6863   -9.2170 H         1 <0>         0.1055
     39 H10        -2.0061   -0.0671   -8.4777 H         1 <0>         0.0985
     40 H11        -4.7070   -0.3569  -11.2249 H         1 <0>         0.0886
     41 H12        -3.8044   -0.9938   -9.8293 H         1 <0>         0.0903
     42 H13        -6.1806   -0.1159   -9.2975 H         1 <0>         0.0820
     43 H14        -5.3935    0.4893   -7.8013 H         1 <0>         0.0846
     44 H15        -7.5463    1.8173   -8.8553 H         1 <0>         0.0856
     45 H16        -6.1664    2.7421   -8.1704 H         1 <0>         0.0793
     46 H17        -6.7079    2.0043  -11.0987 H         1 <0>         0.0618
     47 H18        -6.2320    3.5927  -10.4256 H         1 <0>         0.0866
     48 H19        -3.5851    1.4009  -12.6001 H         1 <0>         0.0861
     49 H20        -1.8052    1.4074  -12.6132 H         1 <0>         0.0843
     50 H21        -3.3865   -1.1252  -13.3201 H         1 <0>         0.0868
     51 H22        -0.5114   -0.0490  -13.7841 H         1 <0>         0.0868
     52 H23        -1.0315   -1.7725  -13.5389 H         1 <0>         0.0601
     53 H24        -1.0724   -0.4939  -16.1280 H         1 <0>         0.0668
     54 H25        -2.2435   -1.8049  -15.6688 H         1 <0>         0.0771
     55 H26        -3.8182    0.0570  -15.4229 H         1 <0>         0.0662
     56 H27        -2.4748    1.2400  -15.1115 H         1 <0>         0.0821
@<TRIPOS>BOND
     1    1    2 1
     2    1   31 1
     3    1   32 1
     4    1   33 1
     5    2    3 2
     6    2    4 1
     7    4    8 1
     8    4    5 2
     9    5    6 1
    10    5   34 1
    11    6    7 2
    12    6   35 1
    13    7    8 1
    14    7    9 1
    15    9   13 1
    16    9   10 2
    17   10   11 1
    18   11   12 2
    19   12   13 1
    20   12   14 1
    21   14   15 1
    22   14   36 1
    23   14   37 1
    24   15   16 1
    25   15   38 1
    26   15   39 1
    27   16   17 2
    28   16   18 am
    29   18   19 1
    30   18   26 1
    31   19   20 1
    32   19   40 1
    33   19   41 1
    34   20   21 1
    35   20   25 1
    36   20   22 1
    37   22   23 1
    38   22   42 1
    39   22   43 1
    40   23   24 1
    41   23   44 1
    42   23   45 1
    43   24   25 1
    44   24   46 1
    45   24   47 1
    46   26   27 1
    47   26   48 1
    48   26   49 1
    49   27   30 1
    50   27   28 1
    51   27   50 1
    52   28   29 1
    53   28   51 1
    54   28   52 1
    55   29   30 1
    56   29   53 1
    57   29   54 1
    58   30   55 1
    59   30   56 1
@<TRIPOS>MOLECULE
ZINC22765410
   50    52     0     0     0
SMALL
USER_CHARGES

@<TRIPOS>ATOM
      1 C1         -0.0184    1.5028    0.0103 C.3       1 <0>        -0.0730
      2 C2          0.0021   -0.0041    0.0020 C.2       1 <0>         0.2530
      3 N1          0.0076   -0.7759   -1.0906 N.2       1 <0>        -0.5265
      4 C3          0.0262   -2.0345   -0.7496 C.2       1 <0>         0.3105
      5 O1          0.0333   -2.1066    0.5874 O.3       1 <0>        -0.0981
      6 N2          0.0229   -0.7667    1.0572 N.2       1 <0>        -0.3338
      7 C4          0.0378   -3.2062   -1.6973 C.3       1 <0>        -0.0917
      8 S1          1.7525   -3.6531   -2.0853 S.3       1 <0>         0.0453
      9 C5          1.5980   -5.0190   -3.1876 C.ar      1 <0>        -0.0422
     10 C6          0.3395   -5.4846   -3.5519 C.ar      1 <0>        -0.1489
     11 C7          0.2216   -6.5535   -4.4151 C.ar      1 <0>        -0.0546
     12 C8          1.3525   -7.1722   -4.9262 C.ar      1 <0>        -0.1371
     13 C9          2.6079   -6.7265   -4.5772 C.ar      1 <0>        -0.0339
     14 C10         2.7457   -5.6403   -3.7078 C.ar      1 <0>        -0.1165
     15 C11         4.0848   -5.1546   -3.3351 C.2       1 <0>         0.5071
     16 O2          4.2000   -4.2133   -2.5751 O.2       1 <0>        -0.4798
     17 O3          5.1828   -5.7539   -3.8369 O.3       1 <0>        -0.3203
     18 C12         6.4496   -5.2305   -3.4326 C.3       1 <0>         0.0515
     19 C13         7.5522   -6.0208   -4.0889 C.2       1 <0>         0.5129
     20 O4          7.2800   -6.9415   -4.8299 O.2       1 <0>        -0.4963
     21 N3          8.8408   -5.7043   -3.8525 N.am      1 <0>        -0.6072
     22 C14         9.1695   -4.5921   -2.9574 C.3       1 <0>         0.0587
     23 C15         9.9127   -6.4725   -4.4905 C.3       1 <0>         0.1559
     24 C16        10.2634   -5.8422   -5.8136 C.ar      1 <0>        -0.1453
     25 C17         9.6036   -6.2365   -6.9653 C.ar      1 <0>         0.1370
     26 C18         9.9267   -5.6567   -8.1802 C.ar      1 <0>        -0.1543
     27 C19        10.9076   -4.6848   -8.2431 C.ar      1 <0>        -0.0702
     28 C20        11.5662   -4.2913   -7.0936 C.ar      1 <0>        -0.1250
     29 C21        11.2405   -4.8657   -5.8774 C.ar      1 <0>         0.0019
     30 Cl1        12.0634   -4.3655   -4.4330 Cl        1 <0>        -0.0502
     31 F1          8.6452   -7.1868   -6.9035 F         1 <0>        -0.1093
     32 H1          1.0042    1.8801    0.0026 H         1 <0>         0.0990
     33 H2         -0.5455    1.8639   -0.8728 H         1 <0>         0.0992
     34 H3         -0.5286    1.8543    0.9071 H         1 <0>         0.0930
     35 H4         -0.4624   -4.0552   -1.2315 H         1 <0>         0.1284
     36 H5         -0.4839   -2.9360   -2.6154 H         1 <0>         0.1370
     37 H6         -0.5465   -5.0087   -3.1583 H         1 <0>         0.1346
     38 H7         -0.7583   -6.9115   -4.6948 H         1 <0>         0.1371
     39 H8          1.2481   -8.0086   -5.6014 H         1 <0>         0.1384
     40 H9          3.4849   -7.2127   -4.9783 H         1 <0>         0.1489
     41 H10         6.5234   -4.1853   -3.7329 H         1 <0>         0.1009
     42 H11         6.5445   -5.3049   -2.3493 H         1 <0>         0.1026
     43 H12         9.2632   -4.9627   -1.9366 H         1 <0>         0.0661
     44 H13        10.1122   -4.1418   -3.2685 H         1 <0>         0.0847
     45 H14         8.3777   -3.8442   -3.0012 H         1 <0>         0.0740
     46 H15        10.7912   -6.4755   -3.8452 H         1 <0>         0.1008
     47 H16         9.5780   -7.4970   -4.6534 H         1 <0>         0.1039
     48 H17         9.4127   -5.9640   -9.0790 H         1 <0>         0.1442
     49 H18        11.1597   -4.2330   -9.1911 H         1 <0>         0.1450
     50 H19        12.3327   -3.5321   -7.1438 H         1 <0>         0.1426
@<TRIPOS>BOND
     1    1    2 1
     2    1   32 1
     3    1   33 1
     4    1   34 1
     5    2    6 2
     6    2    3 1
     7    3    4 2
     8    4    5 1
     9    4    7 1
    10    5    6 1
    11    7    8 1
    12    7   35 1
    13    7   36 1
    14    8    9 1
    15    9   14 ar
    16    9   10 ar
    17   10   11 ar
    18   10   37 1
    19   11   12 ar
    20   11   38 1
    21   12   13 ar
    22   12   39 1
    23   13   14 ar
    24   13   40 1
    25   14   15 1
    26   15   16 2
    27   15   17 1
    28   17   18 1
    29   18   19 1
    30   18   41 1
    31   18   42 1
    32   19   20 2
    33   19   21 am
    34   21   22 1
    35   21   23 1
    36   22   43 1
    37   22   44 1
    38   22   45 1
    39   23   24 1
    40   23   46 1
    41   23   47 1
    42   24   29 ar
    43   24   25 ar
    44   25   26 ar
    45   25   31 1
    46   26   27 ar
    47   26   48 1
    48   27   28 ar
    49   27   49 1
    50   28   29 ar
    51   28   50 1
    52   29   30 1
@<TRIPOS>MOLECULE
ZINC00961813
   47    49     0     0     0
SMALL
USER_CHARGES
methyl 2-[(1-naphthylsulfonyl-propyl-amino)methyl]oxazole-4-carboxylate
@<TRIPOS>ATOM
      1 C1         -2.7231    2.4036    4.5952 C.3       1 <0>        -0.1518
      2 C2         -2.2501    3.2429    3.4066 C.3       1 <0>        -0.1473
      3 C3         -3.4631    3.8270    2.6799 C.3       1 <0>         0.1049
      4 N1         -3.0102    4.6307    1.5417 N.pl3     1 <0>        -0.9931
      5 C4         -2.6303    6.0317    1.7393 C.3       1 <0>         0.2155
      6 C5         -3.8649    6.8954    1.7131 C.2       1 <0>         0.1733
      7 N2         -4.5866    7.2074    2.7474 N.2       1 <0>        -0.4232
      8 C6         -5.6138    7.9987    2.3337 C.2       1 <0>        -0.0659
      9 C7         -5.4816    8.1545    0.9874 C.2       1 <0>         0.0436
     10 O1         -4.3885    7.4678    0.6197 O.3       1 <0>        -0.1720
     11 C8         -6.6698    8.5767    3.1821 C.2       1 <0>         0.5562
     12 O2         -7.5356    9.2708    2.6865 O.2       1 <0>        -0.4987
     13 O3         -6.6760    8.3359    4.5082 O.3       1 <0>        -0.3371
     14 C9         -7.7468    8.9379    5.2825 C.3       1 <0>         0.0349
     15 S1         -2.9276    3.9554    0.0320 S.o2      1 <0>         2.6824
     16 O4         -3.1263    5.0121   -0.8970 O.2       1 <0>        -0.9389
     17 O5         -3.7533    2.7991    0.0585 O.2       1 <0>        -0.9417
     18 C10        -1.2748    3.3888   -0.1957 C.ar      1 <0>        -0.6630
     19 C11        -0.2864    3.8083    0.6411 C.ar      1 <0>        -0.0032
     20 C12         1.0273    3.3753    0.4734 C.ar      1 <0>        -0.1459
     21 C13         1.3583    2.5108   -0.5247 C.ar      1 <0>        -0.0410
     22 C14         0.3639    2.0508   -1.4042 C.ar      1 <0>        -0.0700
     23 C15        -0.9715    2.4959   -1.2372 C.ar      1 <0>         0.0305
     24 C16        -1.9664    2.0352   -2.1166 C.ar      1 <0>        -0.1405
     25 C17        -1.6354    1.1709   -3.1143 C.ar      1 <0>        -0.0820
     26 C18        -0.3224    0.7332   -3.2785 C.ar      1 <0>        -0.1189
     27 C19         0.6671    1.1576   -2.4461 C.ar      1 <0>        -0.0927
     28 H1         -3.3578    1.5927    4.2377 H         1 <0>         0.0588
     29 H2         -1.8589    1.9874    5.1130 H         1 <0>         0.0601
     30 H3         -3.2897    3.0328    5.2817 H         1 <0>         0.0603
     31 H4         -1.6835    2.6137    2.7201 H         1 <0>         0.0648
     32 H5         -1.6155    4.0538    3.7641 H         1 <0>         0.0720
     33 H6         -4.0297    4.4562    3.3663 H         1 <0>         0.0981
     34 H7         -4.0978    3.0161    2.3224 H         1 <0>         0.1003
     35 H8         -2.1312    6.1405    2.7022 H         1 <0>         0.1363
     36 H9         -1.9538    6.3406    0.9424 H         1 <0>         0.1181
     37 H10        -6.1301    8.7256    0.3396 H         1 <0>         0.2380
     38 H11        -7.6339    8.6654    6.3318 H         1 <0>         0.1067
     39 H12        -7.7025   10.0223    5.1819 H         1 <0>         0.0664
     40 H13        -8.7077    8.5778    4.9149 H         1 <0>         0.0663
     41 H14        -0.5231    4.4906    1.4440 H         1 <0>         0.1349
     42 H15         1.7936    3.7273    1.1481 H         1 <0>         0.1370
     43 H16         2.3800    2.1800   -0.6396 H         1 <0>         0.1384
     44 H17        -2.9882    2.3653   -2.0010 H         1 <0>         0.1285
     45 H18        -2.4018    0.8187   -3.7889 H         1 <0>         0.1338
     46 H19        -0.0867    0.0465   -4.0781 H         1 <0>         0.1321
     47 H20         1.6800    0.8096   -2.5853 H         1 <0>         0.1348
@<TRIPOS>BOND
     1    1    2 1
     2    1   28 1
     3    1   29 1
     4    1   30 1
     5    2    3 1
     6    2   31 1
     7    2   32 1
     8    3    4 1
     9    3   33 1
    10    3   34 1
    11    4    5 1
    12    4   15 1
    13    5    6 1
    14    5   35 1
    15    5   36 1
    16    6   10 1
    17    6    7 2
    18    7    8 1
    19    8    9 2
    20    8   11 1
    21    9   10 1
    22    9   37 1
    23   11   12 2
    24   11   13 1
    25   13   14 1
    26   14   38 1
    27   14   39 1
    28   14   40 1
    29   15   16 2
    30   15   17 2
    31   15   18 1
    32   18   23 ar
    33   18   19 ar
    34   19   20 ar
    35   19   41 1
    36   20   21 ar
    37   20   42 1
    38   21   22 ar
    39   21   43 1
    40   22   27 ar
    41   22   23 ar
    42   23   24 ar
    43   24   25 ar
    44   24   44 1
    45   25   26 ar
    46   25   45 1
    47   26   27 ar
    48   26   46 1
    49   27   47 1
@<TRIPOS>MOLECULE
ZINC12806344
   45    47     0     0     0
SMALL
USER_CHARGES
4-acetyl-N-allyl-N-[[5-(2-furyl)isoxazol-3-yl]methyl]benzenesulfonamide
@<TRIPOS>ATOM
      1 C1          2.5731   -2.8821   -0.0375 C.3       1 <0>        -0.1933
      2 C2          1.2535   -2.1544   -0.0210 C.2       1 <0>         0.3888
      3 O1          0.2156   -2.7812   -0.0140 O.2       1 <0>        -0.4430
      4 C3          1.2246   -0.6830   -0.0133 C.ar      1 <0>        -0.1149
      5 C4          0.0021   -0.0041    0.0020 C.ar      1 <0>        -0.0800
      6 C5         -0.0166    1.3746    0.0096 C.ar      1 <0>        -0.0105
      7 C6          1.1703    2.0865    0.0021 C.ar      1 <0>        -0.6571
      8 C7          2.3842    1.4219   -0.0130 C.ar      1 <0>        -0.0336
      9 C8          2.4196    0.0435   -0.0208 C.ar      1 <0>        -0.0999
     10 S1          1.1357    3.8481    0.0113 S.o2      1 <0>         2.6838
     11 O2          2.3677    4.2814   -0.5489 O.2       1 <0>        -0.9432
     12 O3         -0.1224    4.2324   -0.5259 O.2       1 <0>        -0.9446
     13 N1          1.1409    4.3297    1.5957 N.pl3     1 <0>        -0.9850
     14 C9          2.4116    4.5677    2.2848 C.3       1 <0>         0.1480
     15 C10         2.7553    6.0332    2.2128 C.2       1 <0>        -0.1779
     16 C11         2.9923    6.7051    3.3121 C.2       1 <0>        -0.1694
     17 C12        -0.1252    4.5178    2.3083 C.3       1 <0>         0.1929
     18 C13        -0.4667    3.2607    3.0660 C.2       1 <0>        -0.0031
     19 C14        -0.1734    2.9865    4.4156 C.2       1 <0>        -0.1922
     20 C15        -0.6898    1.7306    4.6158 C.2       1 <0>         0.0466
     21 O4         -1.2208    1.3540    3.4374 O.3       1 <0>         0.1284
     22 N2         -1.0860    2.2135    2.5980 N.2       1 <0>        -0.3415
     23 C16        -0.6633    0.9523    5.8625 C.2       1 <0>         0.0314
     24 C17        -1.1839   -0.2954    6.0387 C.2       1 <0>        -0.1518
     25 C18        -0.9320   -0.6539    7.3758 C.2       1 <0>        -0.2135
     26 C19        -0.2858    0.3821    7.9488 C.2       1 <0>        -0.0103
     27 O5         -0.1252    1.3498    7.0327 O.3       1 <0>        -0.1596
     28 H1          3.3202   -2.2174   -0.0415 H         1 <0>         0.0759
     29 H2          2.6518   -3.5119    0.8486 H         1 <0>         0.0985
     30 H3          2.6345   -3.5030   -0.9312 H         1 <0>         0.0992
     31 H4         -0.9249   -0.5582    0.0082 H         1 <0>         0.1441
     32 H5         -0.9600    1.9005    0.0169 H         1 <0>         0.1481
     33 H6          3.3062    1.9844   -0.0191 H         1 <0>         0.1454
     34 H7          3.3677   -0.4737   -0.0322 H         1 <0>         0.1447
     35 H8          2.3209    4.2666    3.3285 H         1 <0>         0.0885
     36 H9          3.1992    3.9858    1.8059 H         1 <0>         0.0931
     37 H10         2.8062    6.5295    1.2550 H         1 <0>         0.1172
     38 H11         2.9414    6.2088    4.2700 H         1 <0>         0.0989
     39 H12         3.2387    7.7554    3.2606 H         1 <0>         0.1032
     40 H13        -0.0289    5.3485    3.0073 H         1 <0>         0.1169
     41 H14        -0.9167    4.7361    1.5913 H         1 <0>         0.1181
     42 H15         0.3369    3.6180    5.1278 H         1 <0>         0.1793
     43 H16        -1.6897   -0.8937    5.2953 H         1 <0>         0.1597
     44 H17        -1.2081   -1.5819    7.8543 H         1 <0>         0.1591
     45 H18         0.0471    0.4260    8.9753 H         1 <0>         0.2148
@<TRIPOS>BOND
     1    1    2 1
     2    1   28 1
     3    1   29 1
     4    1   30 1
     5    2    3 2
     6    2    4 1
     7    4    9 ar
     8    4    5 ar
     9    5    6 ar
    10    5   31 1
    11    6    7 ar
    12    6   32 1
    13    7    8 ar
    14    7   10 1
    15    8    9 ar
    16    8   33 1
    17    9   34 1
    18   10   11 2
    19   10   12 2
    20   10   13 1
    21   13   14 1
    22   13   17 1
    23   14   15 1
    24   14   35 1
    25   14   36 1
    26   15   16 2
    27   15   37 1
    28   16   38 1
    29   16   39 1
    30   17   18 1
    31   17   40 1
    32   17   41 1
    33   18   22 2
    34   18   19 1
    35   19   20 2
    36   19   42 1
    37   20   21 1
    38   20   23 1
    39   21   22 1
    40   23   27 1
    41   23   24 2
    42   24   25 1
    43   24   43 1
    44   25   26 2
    45   25   44 1
    46   26   27 1
    47   26   45 1
@<TRIPOS>MOLECULE
ZINC26197649
   55    57     0     0     0
SMALL
USER_CHARGES
[2-(ethyl-phenyl-amino)-2-oxo-ethyl] 3-(2,5,7-trimethylpyrazolo[1,5-a]pyrimidin-6-yl)propanoate
@<TRIPOS>ATOM
      1 C1         -1.8246   -1.0057   -1.2792 C.3       1 <0>        -0.1769
      2 C2         -1.2510   -0.7543    0.1168 C.3       1 <0>         0.0969
      3 N1          0.0021   -0.0041    0.0020 N.am      1 <0>        -0.5688
      4 C3         -0.0166    1.3950    0.0133 C.ar      1 <0>         0.1392
      5 C4          0.3277    2.1047   -1.1296 C.ar      1 <0>        -0.1064
      6 C5          0.3033    3.4856   -1.1168 C.ar      1 <0>        -0.1080
      7 C6         -0.0529    4.1616    0.0357 C.ar      1 <0>        -0.1166
      8 C7         -0.3908    3.4579    1.1772 C.ar      1 <0>        -0.1089
      9 C8         -0.3738    2.0769    1.1691 C.ar      1 <0>        -0.1188
     10 C9          1.1728   -0.6615   -0.1144 C.2       1 <0>         0.5179
     11 O1          2.2169   -0.0443   -0.1213 O.2       1 <0>        -0.4973
     12 C10         1.1847   -2.1635   -0.2361 C.3       1 <0>         0.0481
     13 O2          2.5554   -2.6293   -0.3480 O.3       1 <0>        -0.3324
     14 C11         2.7415   -3.9534   -0.4648 C.2       1 <0>         0.4666
     15 O3          1.7905   -4.6987   -0.4733 O.2       1 <0>        -0.5025
     16 C12         4.1365   -4.5106   -0.5853 C.3       1 <0>        -0.1139
     17 C13         4.0686   -6.0344   -0.7045 C.3       1 <0>        -0.0529
     18 C14         5.4636   -6.5916   -0.8250 C.2       1 <0>        -0.2011
     19 C15         6.0506   -6.7612   -2.0873 C.2       1 <0>         0.2192
     20 N2          7.2670   -7.2420   -2.1922 N.2       1 <0>        -0.4695
     21 C16         7.9646   -7.5878   -1.1019 C.2       1 <0>         0.2650
     22 C17         9.2385   -8.1128   -0.9290 C.2       1 <0>        -0.2659
     23 C18         9.4449   -8.2754    0.4325 C.2       1 <0>         0.1186
     24 N3          8.3712   -7.8790    1.0782 N.2       1 <0>        -0.3137
     25 N4          7.4211   -7.4409    0.1489 N.pl3     1 <0>        -0.3136
     26 C19         6.1592   -6.9380    0.2854 C.2       1 <0>         0.2072
     27 C20         5.5481   -6.7700    1.6526 C.3       1 <0>        -0.1290
     28 C21        10.6984   -8.8183    1.0690 C.3       1 <0>        -0.0802
     29 C22         5.2832   -6.3843   -3.3283 C.3       1 <0>        -0.1154
     30 H1         -2.7655   -1.5690   -1.1930 H         1 <0>         0.0768
     31 H2         -1.1030   -1.5859   -1.8731 H         1 <0>         0.0588
     32 H3         -2.0177   -0.0430   -1.7751 H         1 <0>         0.0651
     33 H4         -1.9726   -0.1741    0.7107 H         1 <0>         0.0911
     34 H5         -1.0579   -1.7170    0.6127 H         1 <0>         0.0861
     35 H6          0.6100    1.5774   -2.0289 H         1 <0>         0.1218
     36 H7          0.5666    4.0381   -2.0066 H         1 <0>         0.1280
     37 H8         -0.0669    5.2414    0.0446 H         1 <0>         0.1267
     38 H9         -0.6685    3.9887    2.0757 H         1 <0>         0.1284
     39 H10        -0.6378    1.5278    2.0609 H         1 <0>         0.1249
     40 H11         0.7183   -2.6073    0.6558 H         1 <0>         0.1062
     41 H12         0.6213   -2.4633   -1.1321 H         1 <0>         0.1082
     42 H13         4.6216   -4.0941   -1.4804 H         1 <0>         0.1146
     43 H14         4.7185   -4.2383    0.3075 H         1 <0>         0.1112
     44 H15         3.5835   -6.4509    0.1906 H         1 <0>         0.0929
     45 H16         3.4866   -6.3068   -1.5973 H         1 <0>         0.0988
     46 H17         9.9414   -8.3516   -1.7133 H         1 <0>         0.1620
     47 H18         6.2640   -7.1045    2.4178 H         1 <0>         0.0924
     48 H19         4.6304   -7.3727    1.7206 H         1 <0>         0.0996
     49 H20         5.3039   -5.7102    1.8173 H         1 <0>         0.0959
     50 H21        10.5776   -8.8332    2.1622 H         1 <0>         0.0778
     51 H22        11.5519   -8.1773    0.8031 H         1 <0>         0.0874
     52 H23        10.8806   -9.8406    0.7062 H         1 <0>         0.0873
     53 H24         5.9002   -6.5861   -4.2163 H         1 <0>         0.0887
     54 H25         5.0309   -5.3142   -3.2925 H         1 <0>         0.0895
     55 H26         4.3584   -6.9775   -3.3818 H         1 <0>         0.0927
@<TRIPOS>BOND
     1    1    2 1
     2    1   30 1
     3    1   31 1
     4    1   32 1
     5    2    3 1
     6    2   33 1
     7    2   34 1
     8    3    4 1
     9    3   10 am
    10    4    9 ar
    11    4    5 ar
    12    5    6 ar
    13    5   35 1
    14    6    7 ar
    15    6   36 1
    16    7    8 ar
    17    7   37 1
    18    8    9 ar
    19    8   38 1
    20    9   39 1
    21   10   11 2
    22   10   12 1
    23   12   13 1
    24   12   40 1
    25   12   41 1
    26   13   14 1
    27   14   15 2
    28   14   16 1
    29   16   17 1
    30   16   42 1
    31   16   43 1
    32   17   18 1
    33   17   44 1
    34   17   45 1
    35   18   26 2
    36   18   19 1
    37   19   20 2
    38   19   29 1
    39   20   21 1
    40   21   25 1
    41   21   22 2
    42   22   23 1
    43   22   46 1
    44   23   24 2
    45   23   28 1
    46   24   25 1
    47   25   26 1
    48   26   27 1
    49   27   47 1
    50   27   48 1
    51   27   49 1
    52   28   50 1
    53   28   51 1
    54   28   52 1
    55   29   53 1
    56   29   54 1
    57   29   55 1
@<TRIPOS>MOLECULE
ZINC57422471
   47    49     0     0     0
SMALL
USER_CHARGES

@<TRIPOS>ATOM
      1 C1          5.7578   -2.4319   -0.3979 C.3       1 <0>        -0.1530
      2 C2          4.3255   -2.9606   -0.2986 C.3       1 <0>         0.0494
      3 O1          3.5470   -2.4321   -1.3741 O.3       1 <0>        -0.3040
      4 C3          2.2411   -2.8063   -1.4328 C.ar      1 <0>         0.1332
      5 C4          1.7221   -3.6566   -0.4747 C.ar      1 <0>        -0.1529
      6 C5          0.3798   -4.0390   -0.5383 C.ar      1 <0>         0.0220
      7 C6         -0.4317   -3.5601   -1.5700 C.ar      1 <0>        -0.0926
      8 C7          0.0926   -2.7128   -2.5223 C.ar      1 <0>        -0.0768
      9 C8          1.4245   -2.3279   -2.4558 C.ar      1 <0>         0.0802
     10 O2          1.9348   -1.4873   -3.3934 O.3       1 <0>        -0.2817
     11 C9          2.6321   -2.0233   -4.4079 C.2       1 <0>         0.4705
     12 O3          2.7073   -3.2239   -4.5215 O.2       1 <0>        -0.4826
     13 C10         3.3209   -1.1275   -5.4050 C.3       1 <0>        -0.1083
     14 C11         4.0384   -1.9843   -6.4500 C.3       1 <0>        -0.0278
     15 C12         4.7272   -1.0885   -7.4470 C.2       1 <0>         0.2978
     16 N1          5.9473   -0.6425   -7.3536 N.2       1 <0>        -0.5297
     17 C13         6.2381    0.1294   -8.4163 C.2       1 <0>         0.3000
     18 N2          5.1884    0.1766   -9.1991 N.2       1 <0>        -0.3294
     19 O4          4.1899   -0.6216   -8.5814 O.3       1 <0>        -0.0963
     20 C14         7.5320    0.8133   -8.6611 C.ar      1 <0>        -0.0483
     21 C15         8.5775    0.6780   -7.7493 C.ar      1 <0>        -0.0405
     22 C16         9.7787    1.3151   -7.9810 C.ar      1 <0>        -0.1542
     23 C17         9.9468    2.0893   -9.1182 C.ar      1 <0>         0.1262
     24 C18         8.9100    2.2268  -10.0268 C.ar      1 <0>        -0.1221
     25 C19         7.7072    1.5879   -9.8059 C.ar      1 <0>        -0.0486
     26 C20         9.0982    3.0707  -11.2611 C.3       1 <0>        -0.1169
     27 F1         11.1248    2.7120   -9.3411 F         1 <0>        -0.1290
     28 C21        -0.1630   -4.9201    0.4515 C.1       1 <0>         0.2481
     29 N3         -0.5936   -5.6191    1.2367 N.1       1 <0>        -0.3976
     30 H1          6.1940   -2.7405   -1.3480 H         1 <0>         0.0684
     31 H2          5.7483   -1.3435   -0.3390 H         1 <0>         0.0690
     32 H3          6.3517   -2.8349    0.4224 H         1 <0>         0.0825
     33 H4          4.3351   -4.0489   -0.3575 H         1 <0>         0.0674
     34 H5          3.8894   -2.6519    0.6515 H         1 <0>         0.0682
     35 H6          2.3527   -4.0248    0.3209 H         1 <0>         0.1471
     36 H7         -1.4696   -3.8541   -1.6215 H         1 <0>         0.1472
     37 H8         -0.5357   -2.3437   -3.3195 H         1 <0>         0.1524
     38 H9          2.5814   -0.4965   -5.8981 H         1 <0>         0.1210
     39 H10         4.0474   -0.5001   -4.8886 H         1 <0>         0.1241
     40 H11         4.7778   -2.6153   -5.9568 H         1 <0>         0.1277
     41 H12         3.3118   -2.6117   -6.9664 H         1 <0>         0.1193
     42 H13         8.4471    0.0755   -6.8625 H         1 <0>         0.1501
     43 H14        10.5894    1.2109   -7.2750 H         1 <0>         0.1477
     44 H15         6.9011    1.6916  -10.5172 H         1 <0>         0.1429
     45 H16         9.4828    2.4500  -12.0704 H         1 <0>         0.0788
     46 H17         8.1413    3.5009  -11.5565 H         1 <0>         0.0764
     47 H18         9.8068    3.8714  -11.0492 H         1 <0>         0.0746
@<TRIPOS>BOND
     1    1    2 1
     2    1   30 1
     3    1   31 1
     4    1   32 1
     5    2    3 1
     6    2   33 1
     7    2   34 1
     8    3    4 1
     9    4    9 ar
    10    4    5 ar
    11    5    6 ar
    12    5   35 1
    13    6    7 ar
    14    6   28 1
    15    7    8 ar
    16    7   36 1
    17    8    9 ar
    18    8   37 1
    19    9   10 1
    20   10   11 1
    21   11   12 2
    22   11   13 1
    23   13   14 1
    24   13   38 1
    25   13   39 1
    26   14   15 1
    27   14   40 1
    28   14   41 1
    29   15   19 1
    30   15   16 2
    31   16   17 1
    32   17   18 2
    33   17   20 1
    34   18   19 1
    35   20   25 ar
    36   20   21 ar
    37   21   22 ar
    38   21   42 1
    39   22   23 ar
    40   22   43 1
    41   23   24 ar
    42   23   27 1
    43   24   25 ar
    44   24   26 1
    45   25   44 1
    46   26   45 1
    47   26   46 1
    48   26   47 1
    49   28   29 3
@<TRIPOS>MOLECULE
ZINC64840794
   45    47     0     0     0
SMALL
USER_CHARGES

@<TRIPOS>ATOM
      1 C1         -0.0187    1.5258    0.0104 C.3       1 <0>        -0.1492
      2 C2          0.0021   -0.0041    0.0020 C.3       1 <0>        -0.0940
      3 C3          0.7421   -0.5109    1.2415 C.3       1 <0>        -0.1532
      4 C4         -1.4333   -0.5336    0.0129 C.3       1 <0>        -0.1114
      5 C5         -1.4157   -2.0577   -0.1212 C.3       1 <0>        -0.0412
      6 C6         -2.8295   -2.5793   -0.1105 C.2       1 <0>         0.2589
      7 N1         -3.5178   -2.9383    0.9789 N.2       1 <0>        -0.5261
      8 C7         -4.7102   -3.3447    0.6413 C.2       1 <0>         0.3002
      9 O1         -4.8218   -3.2567   -0.6901 O.3       1 <0>        -0.0989
     10 N2         -3.5819   -2.7486   -1.1596 N.2       1 <0>        -0.3305
     11 C8         -5.7786   -3.8297    1.5870 C.3       1 <0>        -0.3864
     12 S1         -6.7958   -2.4260    2.1214 S.o       1 <0>         1.3136
     13 O2         -5.9902   -1.5054    2.8444 O.2       1 <0>        -0.7841
     14 C9         -8.0164   -3.1689    3.2389 C.3       1 <0>        -0.3877
     15 C10        -8.9372   -2.0964    3.7614 C.2       1 <0>         0.3092
     16 N3        -10.0555   -1.7187    3.2108 N.2       1 <0>        -0.5219
     17 C11       -10.6211   -0.7408    3.9408 C.2       1 <0>         0.2981
     18 N4         -9.8529   -0.4906    4.9722 N.2       1 <0>        -0.3213
     19 O3         -8.7466   -1.3749    4.8735 O.3       1 <0>        -0.0917
     20 C12       -11.9017   -0.0582    3.6293 C.ar      1 <0>        -0.0282
     21 C13       -12.6306   -0.4215    2.4985 C.ar      1 <0>        -0.0595
     22 C14       -13.8208    0.2160    2.2130 C.ar      1 <0>        -0.1101
     23 C15       -14.2910    1.2148    3.0465 C.ar      1 <0>        -0.0814
     24 C16       -13.5715    1.5801    4.1711 C.ar      1 <0>        -0.0409
     25 C17       -12.3819    0.9438    4.4693 C.ar      1 <0>        -0.0690
     26 Cl1       -14.1680    2.8349    5.2119 Cl        1 <0>        -0.0551
     27 H1          1.0039    1.9031    0.0027 H         1 <0>         0.0579
     28 H2         -0.5459    1.8868   -0.8726 H         1 <0>         0.0553
     29 H3         -0.5289    1.8773    0.9072 H         1 <0>         0.0559
     30 H4          0.5123   -0.3556   -0.8948 H         1 <0>         0.0739
     31 H5          1.7647   -0.1336    1.2338 H         1 <0>         0.0570
     32 H6          0.2319   -0.1594    2.1383 H         1 <0>         0.0572
     33 H7          0.7568   -1.6008    1.2356 H         1 <0>         0.0568
     34 H8         -1.9156   -0.2570    0.9504 H         1 <0>         0.0733
     35 H9         -1.9862   -0.1019   -0.8214 H         1 <0>         0.0688
     36 H10        -0.9334   -2.3344   -1.0587 H         1 <0>         0.0979
     37 H11        -0.8628   -2.4894    0.7131 H         1 <0>         0.1050
     38 H12        -6.4072   -4.5619    1.0803 H         1 <0>         0.1665
     39 H13        -5.3114   -4.2918    2.4567 H         1 <0>         0.1427
     40 H14        -8.5980   -3.9149    2.6974 H         1 <0>         0.1752
     41 H15        -7.5023   -3.6449    4.0739 H         1 <0>         0.1370
     42 H16       -12.2645   -1.2006    1.8464 H         1 <0>         0.1491
     43 H17       -14.3861   -0.0652    1.3367 H         1 <0>         0.1460
     44 H18       -15.2225    1.7116    2.8188 H         1 <0>         0.1427
     45 H19       -11.8232    1.2258    5.3495 H         1 <0>         0.1433
@<TRIPOS>BOND
     1    1    2 1
     2    1   27 1
     3    1   28 1
     4    1   29 1
     5    2    3 1
     6    2    4 1
     7    2   30 1
     8    3   31 1
     9    3   32 1
    10    3   33 1
    11    4    5 1
    12    4   34 1
    13    4   35 1
    14    5    6 1
    15    5   36 1
    16    5   37 1
    17    6   10 2
    18    6    7 1
    19    7    8 2
    20    8    9 1
    21    8   11 1
    22    9   10 1
    23   11   12 1
    24   11   38 1
    25   11   39 1
    26   12   13 2
    27   12   14 1
    28   14   15 1
    29   14   40 1
    30   14   41 1
    31   15   19 1
    32   15   16 2
    33   16   17 1
    34   17   18 2
    35   17   20 1
    36   18   19 1
    37   20   25 ar
    38   20   21 ar
    39   21   22 ar
    40   21   42 1
    41   22   23 ar
    42   22   43 1
    43   23   24 ar
    44   23   44 1
    45   24   25 ar
    46   24   26 1
    47   25   45 1
@<TRIPOS>MOLECULE
ZINC05870635
   48    49     0     0     0
SMALL
USER_CHARGES
phenacyl 2-cyano-3-(2,5-dimethyl-1-propyl-pyrrol-3-yl)-prop-2-enoate
@<TRIPOS>ATOM
      1 C1         -4.4627  -11.9468   -2.0027 C.3       1 <0>        -0.1516
      2 C2         -3.7940  -10.5763   -1.8789 C.3       1 <0>        -0.1391
      3 C3         -3.6042  -10.2332   -0.4000 C.3       1 <0>         0.0904
      4 N1         -2.9638   -8.9208   -0.2814 N.pl3     1 <0>        -0.4245
      5 C4         -1.6150   -8.7140   -0.2345 C.2       1 <0>         0.0138
      6 C5         -1.3726   -7.3968   -0.1315 C.2       1 <0>        -0.1550
      7 C6         -2.6846   -6.7350   -0.1026 C.2       1 <0>        -0.2215
      8 C7         -3.6223   -7.7500   -0.2040 C.2       1 <0>         0.1140
      9 C8         -5.1187   -7.5734   -0.2240 C.3       1 <0>        -0.1017
     10 C9         -2.9384   -5.3439    0.0014 C.2       1 <0>         0.1456
     11 C10        -1.9417   -4.4902    0.4341 C.2       1 <0>        -0.1598
     12 C11        -0.7026   -5.0222    0.9160 C.1       1 <0>         0.2718
     13 N2          0.2804   -5.4443    1.2983 N.1       1 <0>        -0.4212
     14 C12        -2.1530   -3.0382    0.3998 C.2       1 <0>         0.5294
     15 O1         -3.2052   -2.5864   -0.0094 O.2       1 <0>        -0.5090
     16 O2         -1.1803   -2.2051    0.8221 O.3       1 <0>        -0.3350
     17 C13        -1.4587   -0.7814    0.7598 C.3       1 <0>         0.0370
     18 C14        -0.2661   -0.0135    1.2686 C.2       1 <0>         0.3935
     19 O3          0.7211   -0.6075    1.6466 O.2       1 <0>        -0.4211
     20 C15        -0.2995    1.4573    1.3069 C.ar      1 <0>        -0.1668
     21 C16        -1.4341    2.1462    0.8664 C.ar      1 <0>        -0.0755
     22 C17        -1.4599    3.5241    0.9109 C.ar      1 <0>        -0.1301
     23 C18        -0.3627    4.2257    1.3794 C.ar      1 <0>        -0.0844
     24 C19         0.7662    3.5513    1.8112 C.ar      1 <0>        -0.1303
     25 C20         0.8053    2.1734    1.7785 C.ar      1 <0>        -0.0568
     26 C21        -0.5642   -9.7924   -0.2958 C.3       1 <0>        -0.0880
     27 H1         -4.5979  -12.1913   -3.0563 H         1 <0>         0.0647
     28 H2         -3.8331  -12.7021   -1.5323 H         1 <0>         0.0591
     29 H3         -5.4335  -11.9235   -1.5076 H         1 <0>         0.0593
     30 H4         -4.4236   -9.8210   -2.3492 H         1 <0>         0.0716
     31 H5         -2.8232  -10.5997   -2.3739 H         1 <0>         0.0719
     32 H6         -2.9745  -10.9885    0.0703 H         1 <0>         0.0960
     33 H7         -4.5750  -10.2098    0.0951 H         1 <0>         0.0957
     34 H8         -0.4055   -6.9191   -0.0779 H         1 <0>         0.1529
     35 H9         -5.4562   -7.4496   -1.2530 H         1 <0>         0.0879
     36 H10        -5.5942   -8.4525    0.2110 H         1 <0>         0.0748
     37 H11        -5.3882   -6.6904    0.3555 H         1 <0>         0.0918
     38 H12        -3.9107   -4.9515   -0.2576 H         1 <0>         0.1568
     39 H13        -2.2559   -0.5726    1.3262 H         1 <0>         0.0964
     40 H14        -1.6614   -0.4957   -0.2724 H         1 <0>         0.1094
     41 H15        -2.2895    1.6003    0.4968 H         1 <0>         0.1334
     42 H16        -2.3370    4.0575    0.5753 H         1 <0>         0.1324
     43 H17        -0.3874    5.3050    1.4078 H         1 <0>         0.1299
     44 H18         1.6186    4.1058    2.1751 H         1 <0>         0.1321
     45 H19         1.6869    1.6486    2.1157 H         1 <0>         0.1361
     46 H20        -0.2876   -9.9716   -1.3347 H         1 <0>         0.0744
     47 H21         0.3151   -9.4751    0.2648 H         1 <0>         0.0836
     48 H22        -0.9601  -10.7105    0.1384 H         1 <0>         0.0657
@<TRIPOS>BOND
     1    1    2 1
     2    1   27 1
     3    1   28 1
     4    1   29 1
     5    2    3 1
     6    2   30 1
     7    2   31 1
     8    3    4 1
     9    3   32 1
    10    3   33 1
    11    4    8 1
    12    4    5 1
    13    5    6 2
    14    5   26 1
    15    6    7 1
    16    6   34 1
    17    7    8 2
    18    7   10 1
    19    8    9 1
    20    9   35 1
    21    9   36 1
    22    9   37 1
    23   10   11 2
    24   10   38 1
    25   11   12 1
    26   11   14 1
    27   12   13 3
    28   14   15 2
    29   14   16 1
    30   16   17 1
    31   17   18 1
    32   17   39 1
    33   17   40 1
    34   18   19 2
    35   18   20 1
    36   20   25 ar
    37   20   21 ar
    38   21   22 ar
    39   21   41 1
    40   22   23 ar
    41   22   42 1
    42   23   24 ar
    43   23   43 1
    44   24   25 ar
    45   24   44 1
    46   25   45 1
    47   26   46 1
    48   26   47 1
    49   26   48 1
@<TRIPOS>MOLECULE
ZINC40238722
   47    49     0     0     0
SMALL
USER_CHARGES

@<TRIPOS>ATOM
      1 C1         -0.0157    1.3058    0.0092 C.2       1 <0>        -0.1725
      2 C2          0.0021   -0.0041    0.0020 C.2       1 <0>        -0.1832
      3 C3         -1.2926   -0.7753    0.0102 C.3       1 <0>         0.1295
      4 N1         -1.3176   -1.6997   -1.1260 N.am      1 <0>        -0.6036
      5 C4         -0.7914   -3.0587   -0.9763 C.3       1 <0>         0.1430
      6 C5         -1.8971   -3.9789   -0.5272 C.2       1 <0>        -0.1862
      7 C6         -2.1720   -5.0580   -1.2171 C.2       1 <0>        -0.1587
      8 C7         -1.8247   -1.2999   -2.3090 C.2       1 <0>         0.4981
      9 O1         -1.8454   -2.0652   -3.2496 O.2       1 <0>        -0.5079
     10 C8         -2.3660    0.0980   -2.4630 C.3       1 <0>         0.0933
     11 N2         -2.8551    0.2844   -3.8313 N.pl3     1 <0>        -0.4734
     12 C9         -2.1208    0.7391   -4.9106 C.ar      1 <0>         0.0636
     13 C10        -0.8033    1.1413   -5.0764 C.ar      1 <0>        -0.1113
     14 C11        -0.3647    1.5533   -6.3178 C.ar      1 <0>        -0.0982
     15 C12        -1.2318    1.5681   -7.4011 C.ar      1 <0>        -0.1272
     16 C13        -2.5325    1.1758   -7.2581 C.ar      1 <0>        -0.0627
     17 C14        -3.0003    0.7539   -6.0085 C.ar      1 <0>         0.0538
     18 N3         -4.2039    0.3190   -5.5662 N.2       1 <0>        -0.4783
     19 C15        -4.1272    0.0345   -4.2836 C.2       1 <0>         0.3242
     20 C16        -5.2304   -0.4680   -3.4637 C.2       1 <0>        -0.0997
     21 C17        -6.4452   -0.6774   -4.0197 C.2       1 <0>        -0.0092
     22 C18        -7.5473   -1.1794   -3.2006 C.2       1 <0>        -0.0024
     23 C19        -8.8177   -1.4391   -3.6345 C.2       1 <0>        -0.1699
     24 C20        -9.5382   -1.9021   -2.5204 C.2       1 <0>        -0.2147
     25 C21        -8.6890   -1.9048   -1.4709 C.2       1 <0>        -0.0262
     26 O2         -7.4877   -1.4732   -1.8857 O.3       1 <0>        -0.1729
     27 H1          0.9122    1.8585    0.0033 H         1 <0>         0.1053
     28 H2         -0.9582    1.8330    0.0166 H         1 <0>         0.0997
     29 H3          0.9446   -0.5313   -0.0098 H         1 <0>         0.1158
     30 H4         -1.3737   -1.3393    0.9394 H         1 <0>         0.0970
     31 H5         -2.1295   -0.0812   -0.0676 H         1 <0>         0.0832
     32 H6         -0.3978   -3.4033   -1.9326 H         1 <0>         0.0889
     33 H7          0.0064   -3.0597   -0.2335 H         1 <0>         0.0884
     34 H8         -2.4629   -3.7487    0.3635 H         1 <0>         0.1098
     35 H9         -2.9644   -5.7175   -0.8952 H         1 <0>         0.1004
     36 H10        -1.6062   -5.2883   -2.1077 H         1 <0>         0.0995
     37 H11        -3.1855    0.2498   -1.7604 H         1 <0>         0.1215
     38 H12        -1.5742    0.8188   -2.2588 H         1 <0>         0.1218
     39 H13        -0.1239    1.1323   -4.2369 H         1 <0>         0.1180
     40 H14         0.6606    1.8668   -6.4474 H         1 <0>         0.1305
     41 H15        -0.8748    1.8934   -8.3671 H         1 <0>         0.1308
     42 H16        -3.1987    1.1917   -8.1080 H         1 <0>         0.1308
     43 H17        -5.0743   -0.6716   -2.4146 H         1 <0>         0.1327
     44 H18        -6.6013   -0.4739   -5.0688 H         1 <0>         0.1629
     45 H19        -9.1944   -1.3128   -4.6388 H         1 <0>         0.1558
     46 H20       -10.5764   -2.1995   -2.5063 H         1 <0>         0.1534
     47 H21        -8.9347   -2.2083   -0.4640 H         1 <0>         0.2062
@<TRIPOS>BOND
     1    1    2 2
     2    1   27 1
     3    1   28 1
     4    2    3 1
     5    2   29 1
     6    3    4 1
     7    3   30 1
     8    3   31 1
     9    4    5 1
    10    4    8 am
    11    5    6 1
    12    5   32 1
    13    5   33 1
    14    6    7 2
    15    6   34 1
    16    7   35 1
    17    7   36 1
    18    8    9 2
    19    8   10 1
    20   10   11 1
    21   10   37 1
    22   10   38 1
    23   11   19 1
    24   11   12 1
    25   12   17 ar
    26   12   13 ar
    27   13   14 ar
    28   13   39 1
    29   14   15 ar
    30   14   40 1
    31   15   16 ar
    32   15   41 1
    33   16   17 ar
    34   16   42 1
    35   17   18 1
    36   18   19 2
    37   19   20 1
    38   20   21 2
    39   20   43 1
    40   21   22 1
    41   21   44 1
    42   22   26 1
    43   22   23 2
    44   23   24 1
    45   23   45 1
    46   24   25 2
    47   24   46 1
    48   25   26 1
    49   25   47 1
@<TRIPOS>MOLECULE
ZINC60508208
   59    59     0     0     0
SMALL
USER_CHARGES

@<TRIPOS>ATOM
      1 C1          2.2547   -2.6345   -3.3128 C.3       1 <0>        -0.1528
      2 C2          0.9669   -2.3582   -2.5343 C.3       1 <0>         0.0569
      3 O1          0.7170   -3.4354   -1.6292 O.3       1 <0>        -0.3819
      4 C3         -0.4694   -3.2755   -0.8488 C.3       1 <0>         0.0938
      5 C4         -1.6551   -3.8969   -1.5906 C.3       1 <0>        -0.1545
      6 C5         -2.9308   -3.6932   -0.7673 C.3       1 <0>         0.1218
      7 N1         -2.7138   -4.2321    0.5823 N.pl3     1 <0>        -1.0072
      8 C6         -1.5491   -3.7690    1.3490 C.3       1 <0>         0.1224
      9 C7         -0.2889   -3.9719    0.5020 C.3       1 <0>        -0.1293
     10 S1         -3.7623   -5.3398    1.2271 S.o2      1 <0>         2.7786
     11 O2         -4.4501   -5.9324    0.1339 O.2       1 <0>        -0.9701
     12 O3         -3.0179   -6.1059    2.1643 O.2       1 <0>        -0.9718
     13 N2         -4.8920   -4.4966    2.0961 N.pl3     1 <0>        -1.0037
     14 C8         -6.1623   -4.1175    1.4726 C.3       1 <0>         0.1233
     15 C9         -7.2256   -5.1672    1.8022 C.3       1 <0>        -0.1361
     16 C10        -8.5523   -4.7712    1.1511 C.3       1 <0>        -0.0948
     17 C11        -9.5816   -5.8807    1.3754 C.3       1 <0>        -0.1486
     18 C12        -9.0596   -3.4707    1.7772 C.3       1 <0>        -0.1504
     19 C13        -4.6211   -4.1298    3.4883 C.3       1 <0>         0.1112
     20 C14        -4.0821   -2.6990    3.5431 C.3       1 <0>        -0.1387
     21 C15        -3.9148   -2.2726    5.0029 C.3       1 <0>        -0.0945
     22 C16        -2.8397   -3.1357    5.6663 C.3       1 <0>        -0.1550
     23 C17        -3.4953   -0.8023    5.0599 C.3       1 <0>        -0.1473
     24 H1          2.4453   -1.8129   -4.0033 H         1 <0>         0.0710
     25 H2          3.0882   -2.7244   -2.6162 H         1 <0>         0.0631
     26 H3          2.1481   -3.5631   -3.8736 H         1 <0>         0.0632
     27 H4          1.0734   -1.4297   -1.9735 H         1 <0>         0.0478
     28 H5          0.1334   -2.2683   -3.2310 H         1 <0>         0.0477
     29 H6         -0.6579   -2.2141   -0.6878 H         1 <0>         0.0623
     30 H7         -1.7686   -3.4163   -2.5623 H         1 <0>         0.0778
     31 H8         -1.4785   -4.9634   -1.7300 H         1 <0>         0.0781
     32 H9         -3.1586   -2.6292   -0.7036 H         1 <0>         0.0704
     33 H10        -3.7596   -4.2187   -1.2416 H         1 <0>         0.0966
     34 H11        -1.6642   -2.7112    1.5852 H         1 <0>         0.0721
     35 H12        -1.4663   -4.3446    2.2709 H         1 <0>         0.0964
     36 H13        -0.1251   -5.0377    0.3428 H         1 <0>         0.0786
     37 H14         0.5700   -3.5447    1.0196 H         1 <0>         0.0838
     38 H15        -6.4792   -3.1470    1.8545 H         1 <0>         0.0821
     39 H16        -6.0332   -4.0581    0.3919 H         1 <0>         0.0798
     40 H17        -6.9087   -6.1377    1.4203 H         1 <0>         0.0689
     41 H18        -7.3547   -5.2265    2.8829 H         1 <0>         0.0682
     42 H19        -8.4026   -4.6252    0.0813 H         1 <0>         0.0728
     43 H20        -9.7312   -6.0267    2.4451 H         1 <0>         0.0543
     44 H21       -10.5268   -5.5986    0.9115 H         1 <0>         0.0558
     45 H22        -9.2202   -6.8073    0.9293 H         1 <0>         0.0557
     46 H23        -8.3263   -2.6802    1.6175 H         1 <0>         0.0551
     47 H24       -10.0048   -3.1886    1.3133 H         1 <0>         0.0551
     48 H25        -9.2092   -3.6166    2.8470 H         1 <0>         0.0548
     49 H26        -5.5428   -4.1933    4.0667 H         1 <0>         0.0834
     50 H27        -3.8818   -4.8128    3.9067 H         1 <0>         0.0923
     51 H28        -3.1169   -2.6547    3.0387 H         1 <0>         0.0655
     52 H29        -4.7826   -2.0276    3.0465 H         1 <0>         0.0693
     53 H30        -4.8603   -2.4013    5.5297 H         1 <0>         0.0723
     54 H31        -2.7205   -2.8320    6.7063 H         1 <0>         0.0564
     55 H32        -3.1386   -4.1832    5.6257 H         1 <0>         0.0584
     56 H33        -1.8942   -3.0070    5.1395 H         1 <0>         0.0559
     57 H34        -4.2612   -0.1874    4.5873 H         1 <0>         0.0535
     58 H35        -3.3761   -0.4985    6.0999 H         1 <0>         0.0560
     59 H36        -2.5498   -0.6736    4.5331 H         1 <0>         0.0541
@<TRIPOS>BOND
     1    1    2 1
     2    1   24 1
     3    1   25 1
     4    1   26 1
     5    2    3 1
     6    2   27 1
     7    2   28 1
     8    3    4 1
     9    4    9 1
    10    4    5 1
    11    4   29 1
    12    5    6 1
    13    5   30 1
    14    5   31 1
    15    6    7 1
    16    6   32 1
    17    6   33 1
    18    7    8 1
    19    7   10 1
    20    8    9 1
    21    8   34 1
    22    8   35 1
    23    9   36 1
    24    9   37 1
    25   10   11 2
    26   10   12 2
    27   10   13 1
    28   13   14 1
    29   13   19 1
    30   14   15 1
    31   14   38 1
    32   14   39 1
    33   15   16 1
    34   15   40 1
    35   15   41 1
    36   16   17 1
    37   16   18 1
    38   16   42 1
    39   17   43 1
    40   17   44 1
    41   17   45 1
    42   18   46 1
    43   18   47 1
    44   18   48 1
    45   19   20 1
    46   19   49 1
    47   19   50 1
    48   20   21 1
    49   20   51 1
    50   20   52 1
    51   21   22 1
    52   21   23 1
    53   21   53 1
    54   22   54 1
    55   22   55 1
    56   22   56 1
    57   23   57 1
    58   23   58 1
    59   23   59 1
@<TRIPOS>MOLECULE
ZINC65544400
   50    52     0     0     0
SMALL
USER_CHARGES

@<TRIPOS>ATOM
      1 C1          3.1360   -2.4024    1.9528 C.3       1 <0>        -0.1534
      2 C2          2.0567   -2.4874    0.8717 C.3       1 <0>         0.0625
      3 O1          0.8704   -3.0587    1.4267 O.3       1 <0>        -0.3551
      4 C3         -0.1793   -3.2038    0.6028 C.2       1 <0>         0.4607
      5 O2         -0.0937   -2.8571   -0.5515 O.2       1 <0>        -0.4828
      6 C4         -1.4646   -3.7990    1.1174 C.3       1 <0>         0.0539
      7 N1         -2.4508   -3.8493    0.0299 N.3       1 <0>        -0.5148
      8 C5         -3.6286   -4.6342    0.4233 C.3       1 <0>         0.0814
      9 C6         -3.2566   -6.0924    0.5038 C.2       1 <0>         0.0428
     10 C7         -2.9082   -6.6586    1.6868 C.2       1 <0>        -0.2522
     11 C8         -2.5644   -8.0270    1.7354 C.2       1 <0>         0.5110
     12 O3         -2.2536   -8.5232    2.8031 O.2       1 <0>        -0.4625
     13 O4         -2.5717   -8.7951    0.6350 O.3       1 <0>        -0.2705
     14 C9         -2.9084   -8.2938   -0.5726 C.ar      1 <0>         0.1450
     15 C10        -3.2669   -6.9395   -0.6928 C.ar      1 <0>        -0.1451
     16 C11        -3.6213   -6.4192   -1.9411 C.ar      1 <0>        -0.0408
     17 C12        -3.6210   -7.2413   -3.0457 C.ar      1 <0>        -0.1085
     18 C13        -3.2717   -8.5784   -2.9244 C.ar      1 <0>        -0.0268
     19 C14        -2.9100   -9.1030   -1.7010 C.ar      1 <0>        -0.1352
     20 C15        -3.2771   -9.4642   -4.1435 C.3       1 <0>        -0.1252
     21 C16        -4.0026   -6.6857   -4.3935 C.3       1 <0>        -0.1168
     22 C17        -2.8370   -2.4968   -0.3936 C.3       1 <0>         0.0805
     23 C18        -3.5342   -2.5677   -1.7537 C.3       1 <0>        -0.1472
     24 C19        -2.8200   -1.9311   -2.9477 C.3       1 <0>        -0.1648
     25 C20        -4.0570   -1.2587   -2.3487 C.3       1 <0>        -0.1810
     26 H1          4.0409   -1.9666    1.5294 H         1 <0>         0.0809
     27 H2          2.7809   -1.7776    2.7724 H         1 <0>         0.0670
     28 H3          3.3550   -3.4025    2.3269 H         1 <0>         0.0677
     29 H4          1.8377   -1.4873    0.4976 H         1 <0>         0.0674
     30 H5          2.4118   -3.1121    0.0521 H         1 <0>         0.0684
     31 H6         -1.2764   -4.8080    1.4843 H         1 <0>         0.1194
     32 H7         -1.8506   -3.1831    1.9297 H         1 <0>         0.0844
     33 H8         -3.9825   -4.2952    1.3969 H         1 <0>         0.0684
     34 H9         -4.4178   -4.5009   -0.3167 H         1 <0>         0.1067
     35 H10        -2.8937   -6.0642    2.5884 H         1 <0>         0.1629
     36 H11        -3.8940   -5.3788   -2.0384 H         1 <0>         0.1396
     37 H12        -2.6404  -10.1455   -1.6186 H         1 <0>         0.1436
     38 H13        -2.2955   -9.4373   -4.6166 H         1 <0>         0.0811
     39 H14        -3.5102  -10.4873   -3.8483 H         1 <0>         0.0735
     40 H15        -4.0296   -9.1088   -4.8475 H         1 <0>         0.0791
     41 H16        -3.1118   -6.3108   -4.8975 H         1 <0>         0.0751
     42 H17        -4.4567   -7.4727   -4.9956 H         1 <0>         0.0741
     43 H18        -4.7155   -5.8716   -4.2623 H         1 <0>         0.0679
     44 H19        -3.5173   -2.0663    0.3413 H         1 <0>         0.0444
     45 H20        -1.9467   -1.8730   -0.4737 H         1 <0>         0.0927
     46 H21        -4.1150   -3.4716   -1.9377 H         1 <0>         0.1034
     47 H22        -1.8535   -1.4617   -2.7642 H         1 <0>         0.0965
     48 H23        -2.9307   -2.4162   -3.9175 H         1 <0>         0.0926
     49 H24        -4.9815   -1.3015   -2.9245 H         1 <0>         0.0956
     50 H25        -3.9043   -0.3470   -1.7713 H         1 <0>         0.0928
@<TRIPOS>BOND
     1    1    2 1
     2    1   26 1
     3    1   27 1
     4    1   28 1
     5    2    3 1
     6    2   29 1
     7    2   30 1
     8    3    4 1
     9    4    5 2
    10    4    6 1
    11    6    7 1
    12    6   31 1
    13    6   32 1
    14    7    8 1
    15    7   22 1
    16    8    9 1
    17    8   33 1
    18    8   34 1
    19    9   15 1
    20    9   10 2
    21   10   11 1
    22   10   35 1
    23   11   12 2
    24   11   13 1
    25   13   14 1
    26   14   19 ar
    27   14   15 ar
    28   15   16 ar
    29   16   17 ar
    30   16   36 1
    31   17   18 ar
    32   17   21 1
    33   18   19 ar
    34   18   20 1
    35   19   37 1
    36   20   38 1
    37   20   39 1
    38   20   40 1
    39   21   41 1
    40   21   42 1
    41   21   43 1
    42   22   23 1
    43   22   44 1
    44   22   45 1
    45   23   25 1
    46   23   24 1
    47   23   46 1
    48   24   25 1
    49   24   47 1
    50   24   48 1
    51   25   49 1
    52   25   50 1
@<TRIPOS>MOLECULE
ZINC66777595
   46    47     0     0     0
SMALL
USER_CHARGES

@<TRIPOS>ATOM
      1 C1          0.4321    2.0013    0.4667 C.3       1 <0>        -0.1860
      2 C2          0.5637    0.5011    0.7366 C.3       1 <0>         0.1150
      3 C3          1.4787    0.2782    1.9425 C.3       1 <0>        -0.1852
      4 C4         -0.8179   -0.0876    1.0291 C.3       1 <0>        -0.1410
      5 O1          1.1224   -0.1421   -0.4106 O.3       1 <0>        -0.3468
      6 C5          2.3408    0.2620   -0.8028 C.2       1 <0>         0.4636
      7 O2          2.9140    1.1330   -0.1923 O.2       1 <0>        -0.4999
      8 C6          2.9939   -0.3706   -2.0046 C.3       1 <0>        -0.1125
      9 C7          4.3659    0.2664   -2.2339 C.3       1 <0>        -0.1242
     10 C8          5.0290   -0.3759   -3.4541 C.3       1 <0>         0.1167
     11 N1          6.3427    0.2340   -3.6736 N.am      1 <0>        -0.6008
     12 C9          7.5311   -0.3360   -3.0340 C.3       1 <0>         0.0886
     13 C10         6.4581    1.3196   -4.4640 C.2       1 <0>         0.5895
     14 O3          5.4618    1.8526   -4.9145 O.2       1 <0>        -0.5336
     15 C11         7.7903    1.8604   -4.7823 C.2       1 <0>        -0.0122
     16 C12         7.9151    3.0354   -5.4723 C.2       1 <0>        -0.1999
     17 S1          9.5845    3.2190   -5.5811 S.3       1 <0>         0.1646
     18 C13        10.0613    1.7363   -4.7110 C.2       1 <0>         0.1303
     19 N2          8.8870    1.2172   -4.3990 N.2       1 <0>        -0.4566
     20 C14        11.4155    1.2252   -4.4126 C.2       1 <0>        -0.0699
     21 C15        12.5528    1.9261   -4.8189 C.2       1 <0>        -0.1376
     22 C16        13.7442    1.3742   -4.4970 C.2       1 <0>        -0.1988
     23 S2         13.2581   -0.1079   -3.6360 S.3       1 <0>         0.2012
     24 C17        11.5892    0.0588   -3.7278 C.2       1 <0>        -0.1942
     25 H1          1.4163    2.4207    0.2583 H         1 <0>         0.0830
     26 H2         -0.2198    2.1601   -0.3924 H         1 <0>         0.0614
     27 H3          0.0059    2.4920    1.3418 H         1 <0>         0.0712
     28 H4          1.0525    0.7689    2.8175 H         1 <0>         0.0711
     29 H5          1.5724   -0.7906    2.1348 H         1 <0>         0.0610
     30 H6          2.4629    0.6976    1.7341 H         1 <0>         0.0828
     31 H7         -1.4698    0.0712    0.1700 H         1 <0>         0.0669
     32 H8         -0.7241   -1.1564    1.2214 H         1 <0>         0.0667
     33 H9         -1.2441    0.4030    1.9042 H         1 <0>         0.0785
     34 H10         3.1141   -1.4401   -1.8319 H         1 <0>         0.1071
     35 H11         2.3685   -0.2126   -2.8833 H         1 <0>         0.1086
     36 H12         4.2457    1.3359   -2.4067 H         1 <0>         0.0784
     37 H13         4.9913    0.1083   -1.3553 H         1 <0>         0.0739
     38 H14         5.1492   -1.4454   -3.2813 H         1 <0>         0.0828
     39 H15         4.4036   -0.2178   -4.3327 H         1 <0>         0.0869
     40 H16         8.0260   -1.0161   -3.7273 H         1 <0>         0.0588
     41 H17         8.2165    0.4662   -2.7604 H         1 <0>         0.0912
     42 H18         7.2350   -0.8822   -2.1384 H         1 <0>         0.0608
     43 H19         7.1379    3.6823   -5.8515 H         1 <0>         0.2084
     44 H20        12.4844    2.8577   -5.3609 H         1 <0>         0.1441
     45 H21        14.7385    1.7390   -4.7085 H         1 <0>         0.1934
     46 H22        10.8310   -0.6039   -3.3375 H         1 <0>         0.1930
@<TRIPOS>BOND
     1    1    2 1
     2    1   25 1
     3    1   26 1
     4    1   27 1
     5    2    3 1
     6    2    4 1
     7    2    5 1
     8    3   28 1
     9    3   29 1
    10    3   30 1
    11    4   31 1
    12    4   32 1
    13    4   33 1
    14    5    6 1
    15    6    7 2
    16    6    8 1
    17    8    9 1
    18    8   34 1
    19    8   35 1
    20    9   10 1
    21    9   36 1
    22    9   37 1
    23   10   11 1
    24   10   38 1
    25   10   39 1
    26   11   12 1
    27   11   13 am
    28   12   40 1
    29   12   41 1
    30   12   42 1
    31   13   14 2
    32   13   15 1
    33   15   19 1
    34   15   16 2
    35   16   17 1
    36   16   43 1
    37   17   18 1
    38   18   19 2
    39   18   20 1
    40   20   24 2
    41   20   21 1
    42   21   22 2
    43   21   44 1
    44   22   23 1
    45   22   45 1
    46   23   24 1
    47   24   46 1
@<TRIPOS>MOLECULE
ZINC02618993
   48    50     0     0     0
SMALL
USER_CHARGES
3-(2-methoxyethyl)-2-[2-(4-methylphenoxy)ethylsulfanyl]quinazolin-4-one
@<TRIPOS>ATOM
      1 C1          1.2256   -2.1871   -0.0209 C.3       1 <0>        -0.1122
      2 C2          1.2080   -0.6802   -0.0131 C.ar      1 <0>        -0.1220
      3 C3          0.0021   -0.0041    0.0020 C.ar      1 <0>        -0.0806
      4 C4         -0.0167    1.3772    0.0096 C.ar      1 <0>        -0.1448
      5 C5          1.1759    2.0860    0.0020 C.ar      1 <0>         0.1227
      6 C6          2.3846    1.4052   -0.0127 C.ar      1 <0>        -0.2040
      7 C7          2.3980    0.0239   -0.0207 C.ar      1 <0>        -0.0806
      8 O1          1.1601    3.4449    0.0099 O.3       1 <0>        -0.3076
      9 C8          2.4257    4.1084    0.0014 C.3       1 <0>         0.0742
     10 C9          2.2077    5.6228    0.0121 C.3       1 <0>        -0.1105
     11 S1          3.8106    6.4633    0.0013 S.3       1 <0>         0.0078
     12 C10         3.2760    8.1421    0.0161 C.2       1 <0>         0.3713
     13 N1          1.9890    8.3876    0.0300 N.2       1 <0>        -0.5268
     14 C11         1.5101    9.6477    0.0419 C.ar      1 <0>         0.1645
     15 C12         0.1368    9.9098    0.0563 C.ar      1 <0>        -0.1113
     16 C13        -0.3048   11.2027    0.0675 C.ar      1 <0>        -0.0712
     17 C14         0.5911   12.2641    0.0653 C.ar      1 <0>        -0.1383
     18 C15         1.9402   12.0400    0.0513 C.ar      1 <0>        -0.0392
     19 C16         2.4187   10.7306    0.0392 C.ar      1 <0>        -0.1966
     20 C17         3.8567   10.4298    0.0235 C.2       1 <0>         0.5574
     21 O2          4.6879   11.3191    0.0208 O.2       1 <0>        -0.4842
     22 N2          4.2224    9.1267    0.0180 N.am      1 <0>        -0.5249
     23 C18         5.6433    8.7700    0.0079 C.3       1 <0>         0.0909
     24 C19         6.1302    8.6560   -1.4381 C.3       1 <0>         0.0417
     25 O3          6.0575    9.9369   -2.0675 O.3       1 <0>        -0.3769
     26 C20         6.4921    9.9411   -3.4288 C.3       1 <0>         0.0313
     27 H1          1.2198   -2.5452   -1.0504 H         1 <0>         0.0691
     28 H2          2.1247   -2.5426    0.4824 H         1 <0>         0.0653
     29 H3          0.3449   -2.5634    0.4997 H         1 <0>         0.0662
     30 H4         -0.9261   -0.5563    0.0076 H         1 <0>         0.1303
     31 H5         -0.9589    1.9049    0.0169 H         1 <0>         0.1320
     32 H6          3.3144    1.9547   -0.0179 H         1 <0>         0.1274
     33 H7          3.3387   -0.5065   -0.0325 H         1 <0>         0.1255
     34 H8          2.9947    3.8170    0.8842 H         1 <0>         0.0739
     35 H9          2.9774    3.8272   -0.8956 H         1 <0>         0.0735
     36 H10         1.6386    5.9142   -0.8707 H         1 <0>         0.1141
     37 H11         1.6560    5.9041    0.9092 H         1 <0>         0.1144
     38 H12        -0.5713    9.0943    0.0589 H         1 <0>         0.1389
     39 H13        -1.3661   11.4023    0.0786 H         1 <0>         0.1346
     40 H14         0.2183   13.2777    0.0751 H         1 <0>         0.1336
     41 H15         2.6297   12.8712    0.0493 H         1 <0>         0.1380
     42 H16         6.2152    9.5410    0.5242 H         1 <0>         0.1159
     43 H17         5.7817    7.8147    0.5142 H         1 <0>         0.1124
     44 H18         7.1620    8.3047   -1.4474 H         1 <0>         0.0738
     45 H19         5.5008    7.9493   -1.9788 H         1 <0>         0.0591
     46 H20         6.4062   10.9491   -3.8345 H         1 <0>         0.0877
     47 H21         7.5314    9.6163   -3.4794 H         1 <0>         0.0440
     48 H22         5.8702    9.2609   -4.0108 H         1 <0>         0.0401
@<TRIPOS>BOND
     1    1    2 1
     2    1   27 1
     3    1   28 1
     4    1   29 1
     5    2    7 ar
     6    2    3 ar
     7    3    4 ar
     8    3   30 1
     9    4    5 ar
    10    4   31 1
    11    5    6 ar
    12    5    8 1
    13    6    7 ar
    14    6   32 1
    15    7   33 1
    16    8    9 1
    17    9   10 1
    18    9   34 1
    19    9   35 1
    20   10   11 1
    21   10   36 1
    22   10   37 1
    23   11   12 1
    24   12   22 1
    25   12   13 2
    26   13   14 1
    27   14   19 ar
    28   14   15 ar
    29   15   16 ar
    30   15   38 1
    31   16   17 ar
    32   16   39 1
    33   17   18 ar
    34   17   40 1
    35   18   19 ar
    36   18   41 1
    37   19   20 1
    38   20   21 2
    39   20   22 am
    40   22   23 1
    41   23   24 1
    42   23   42 1
    43   23   43 1
    44   24   25 1
    45   24   44 1
    46   24   45 1
    47   25   26 1
    48   26   46 1
    49   26   47 1
    50   26   48 1
@<TRIPOS>MOLECULE
ZINC14678177
   46    48     0     0     0
SMALL
USER_CHARGES
(4-pyrazol-1-ylphenyl)methyl (E)-3-(4-ethoxyphenyl)prop-2-enoate
@<TRIPOS>ATOM
      1 C1         -7.6091    6.6828  -10.4864 C.3       1 <0>        -0.1540
      2 C2         -6.9285    6.3030   -9.1699 C.3       1 <0>         0.0520
      3 O1         -7.7293    6.7490   -8.0736 O.3       1 <0>        -0.3118
      4 C3         -7.2644    6.4894   -6.8251 C.ar      1 <0>         0.1538
      5 C4         -7.9957    6.8967   -5.7150 C.ar      1 <0>        -0.1582
      6 C5         -7.5284    6.6364   -4.4467 C.ar      1 <0>        -0.0439
      7 C6         -6.3146    5.9602   -4.2757 C.ar      1 <0>        -0.1323
      8 C7         -5.5795    5.5570   -5.3969 C.ar      1 <0>        -0.0483
      9 C8         -6.0583    5.8176   -6.6608 C.ar      1 <0>        -0.2154
     10 C9         -5.8107    5.6801   -2.9240 C.2       1 <0>         0.0261
     11 C10        -4.6391    5.0275   -2.7616 C.2       1 <0>        -0.2246
     12 C11        -4.1529    4.7572   -1.4575 C.2       1 <0>         0.5039
     13 O2         -4.7909    5.1129   -0.4847 O.2       1 <0>        -0.5162
     14 O3         -2.9827    4.1053   -1.2953 O.3       1 <0>        -0.3459
     15 C12        -2.5535    3.8668    0.0467 C.3       1 <0>         0.1103
     16 C13        -1.2371    3.1334    0.0302 C.ar      1 <0>        -0.1080
     17 C14        -1.2176    1.7508    0.0173 C.ar      1 <0>        -0.0678
     18 C15        -0.0126    1.0758    0.0080 C.ar      1 <0>        -0.1224
     19 C16         1.1798    1.7870    0.0004 C.ar      1 <0>         0.1723
     20 C17         1.1569    3.1752    0.0076 C.ar      1 <0>        -0.1445
     21 C18        -0.0512    3.8445    0.0222 C.ar      1 <0>        -0.0653
     22 N1          2.4043    1.1048   -0.0149 N.pl3     1 <0>        -0.3265
     23 C19         3.6315    1.6726   -0.0291 C.2       1 <0>         0.0523
     24 C20         4.5464    0.6756   -0.0382 C.2       1 <0>        -0.2590
     25 C21         3.8567   -0.5419   -0.0384 C.2       1 <0>         0.0586
     26 N2          2.5734   -0.2858   -0.0245 N.2       1 <0>        -0.2900
     27 H1         -8.5903    6.2108  -10.5376 H         1 <0>         0.0677
     28 H2         -7.7237    7.7656  -10.5371 H         1 <0>         0.0677
     29 H3         -6.9983    6.3426  -11.3226 H         1 <0>         0.0809
     30 H4         -5.9473    6.7749   -9.1187 H         1 <0>         0.0651
     31 H5         -6.8139    5.2202   -9.1192 H         1 <0>         0.0651
     32 H6         -8.9322    7.4180   -5.8481 H         1 <0>         0.1377
     33 H7         -8.0971    6.9535   -3.5850 H         1 <0>         0.1385
     34 H8         -4.6403    5.0390   -5.2703 H         1 <0>         0.1341
     35 H9         -5.4939    5.5037   -7.5264 H         1 <0>         0.1337
     36 H10        -6.3771    5.9959   -2.0603 H         1 <0>         0.1402
     37 H11        -4.0727    4.7116   -3.6252 H         1 <0>         0.1397
     38 H12        -3.2990    3.2635    0.5648 H         1 <0>         0.0799
     39 H13        -2.4328    4.8185    0.5641 H         1 <0>         0.0799
     40 H14        -2.1455    1.1981    0.0187 H         1 <0>         0.1357
     41 H15         0.0021   -0.0041    0.0020 H         1 <0>         0.1417
     42 H16         2.0829    3.7311    0.0014 H         1 <0>         0.1341
     43 H17        -0.0696    4.9243    0.0278 H         1 <0>         0.1365
     44 H18         3.8435    2.7316   -0.0302 H         1 <0>         0.1789
     45 H19         5.6194    0.7979   -0.0479 H         1 <0>         0.1562
     46 H20         4.3061   -1.5239   -0.0487 H         1 <0>         0.1919
@<TRIPOS>BOND
     1    1    2 1
     2    1   27 1
     3    1   28 1
     4    1   29 1
     5    2    3 1
     6    2   30 1
     7    2   31 1
     8    3    4 1
     9    4    9 ar
    10    4    5 ar
    11    5    6 ar
    12    5   32 1
    13    6    7 ar
    14    6   33 1
    15    7    8 ar
    16    7   10 1
    17    8    9 ar
    18    8   34 1
    19    9   35 1
    20   10   11 2
    21   10   36 1
    22   11   12 1
    23   11   37 1
    24   12   13 2
    25   12   14 1
    26   14   15 1
    27   15   16 1
    28   15   38 1
    29   15   39 1
    30   16   21 ar
    31   16   17 ar
    32   17   18 ar
    33   17   40 1
    34   18   19 ar
    35   18   41 1
    36   19   20 ar
    37   19   22 1
    38   20   21 ar
    39   20   42 1
    40   21   43 1
    41   22   26 1
    42   22   23 1
    43   23   24 2
    44   23   44 1
    45   24   25 1
    46   24   45 1
    47   25   26 2
    48   25   46 1
@<TRIPOS>MOLECULE
ZINC02984959
   53    55     0     0     0
SMALL
USER_CHARGES

@<TRIPOS>ATOM
      1 C1         -0.0184    1.5028    0.0103 C.3       1 <0>        -0.1275
      2 C2          0.0021   -0.0041    0.0020 C.2       1 <0>        -0.1464
      3 C3          0.5757   -0.6538   -1.0015 C.2       1 <0>        -0.1239
      4 C4          0.5957   -2.1314   -1.0096 C.ar      1 <0>        -0.0533
      5 C5          0.0063   -2.8445    0.0353 C.ar      1 <0>        -0.1107
      6 C6          0.0253   -4.2238    0.0262 C.ar      1 <0>        -0.1719
      7 C7          0.6298   -4.9051   -1.0198 C.ar      1 <0>         0.1044
      8 C8          1.2199   -4.1995   -2.0656 C.ar      1 <0>         0.1017
      9 C9          1.1990   -2.8168   -2.0651 C.ar      1 <0>        -0.1642
     10 O1          1.8119   -4.8703   -3.0899 O.3       1 <0>        -0.3051
     11 C10         2.3971   -4.0827   -4.1288 C.3       1 <0>         0.0257
     12 O2          0.6469   -6.2645   -1.0240 O.3       1 <0>        -0.2947
     13 C11         0.0238   -6.9245    0.0798 C.3       1 <0>         0.0596
     14 C12         0.1423   -8.4394   -0.0990 C.3       1 <0>         0.0653
     15 O3          1.5183   -8.8200   -0.0393 O.3       1 <0>        -0.3711
     16 C13         1.7407  -10.2229   -0.1960 C.3       1 <0>         0.0654
     17 C14         3.2407  -10.5136   -0.1155 C.3       1 <0>         0.0560
     18 O4          3.7171  -10.1994    1.1946 O.3       1 <0>        -0.2823
     19 C15         5.0387  -10.4018    1.4352 C.ar      1 <0>         0.1673
     20 C16         5.8514  -10.8798    0.4468 C.ar      1 <0>        -0.2178
     21 C17         7.2079  -11.0931    0.6745 C.ar      1 <0>        -0.0696
     22 C18         7.7637  -10.8314    1.8901 C.ar      1 <0>        -0.1421
     23 C19         6.9605  -10.3390    2.9314 C.ar      1 <0>        -0.0675
     24 C20         5.5804  -10.1140    2.7053 C.ar      1 <0>         0.1062
     25 N1          4.8130   -9.6411    3.6914 N.ar      1 <0>        -0.4480
     26 C21         5.3112   -9.3724    4.8737 C.ar      1 <0>         0.1156
     27 C22         6.6608   -9.5654    5.1614 C.ar      1 <0>        -0.1613
     28 C23         7.4986  -10.0572    4.2015 C.ar      1 <0>        -0.0688
     29 H1          1.0042    1.8801    0.0026 H         1 <0>         0.0676
     30 H2         -0.5455    1.8639   -0.8728 H         1 <0>         0.0676
     31 H3         -0.5286    1.8543    0.9071 H         1 <0>         0.0633
     32 H4         -0.4505   -0.5547    0.8134 H         1 <0>         0.1133
     33 H5          1.0282   -0.1032   -1.8129 H         1 <0>         0.1171
     34 H6         -0.4645   -2.3164    0.8513 H         1 <0>         0.1293
     35 H7         -0.4312   -4.7744    0.8354 H         1 <0>         0.1360
     36 H8          1.6523   -2.2684   -2.8777 H         1 <0>         0.1364
     37 H9          2.8335   -4.7400   -4.8809 H         1 <0>         0.1007
     38 H10         1.6293   -3.4618   -4.5904 H         1 <0>         0.0546
     39 H11         3.1748   -3.4457   -3.7076 H         1 <0>         0.0547
     40 H12         0.5169   -6.6283    1.0056 H         1 <0>         0.0731
     41 H13        -1.0288   -6.6450    0.1231 H         1 <0>         0.0782
     42 H14        -0.4088   -8.9432    0.6951 H         1 <0>         0.0736
     43 H15        -0.2719   -8.7246   -1.0661 H         1 <0>         0.0621
     44 H16         1.2228  -10.7636    0.5961 H         1 <0>         0.0630
     45 H17         1.3597  -10.5451   -1.1651 H         1 <0>         0.0743
     46 H18         3.4180  -11.5688   -0.3232 H         1 <0>         0.0805
     47 H19         3.7687   -9.9051   -0.8498 H         1 <0>         0.0753
     48 H20         5.4350  -11.0959   -0.5260 H         1 <0>         0.1344
     49 H21         7.8286  -11.4718   -0.1241 H         1 <0>         0.1302
     50 H22         8.8176  -11.0024    2.0527 H         1 <0>         0.1318
     51 H23         4.6585   -8.9911    5.6450 H         1 <0>         0.1605
     52 H24         7.0422   -9.3348    6.1452 H         1 <0>         0.1395
     53 H25         8.5473  -10.2136    4.4071 H         1 <0>         0.1420
@<TRIPOS>BOND
     1    1    2 1
     2    1   29 1
     3    1   30 1
     4    1   31 1
     5    2    3 2
     6    2   32 1
     7    3    4 1
     8    3   33 1
     9    4    9 ar
    10    4    5 ar
    11    5    6 ar
    12    5   34 1
    13    6    7 ar
    14    6   35 1
    15    7    8 ar
    16    7   12 1
    17    8    9 ar
    18    8   10 1
    19    9   36 1
    20   10   11 1
    21   11   37 1
    22   11   38 1
    23   11   39 1
    24   12   13 1
    25   13   14 1
    26   13   40 1
    27   13   41 1
    28   14   15 1
    29   14   42 1
    30   14   43 1
    31   15   16 1
    32   16   17 1
    33   16   44 1
    34   16   45 1
    35   17   18 1
    36   17   46 1
    37   17   47 1
    38   18   19 1
    39   19   24 ar
    40   19   20 ar
    41   20   21 ar
    42   20   48 1
    43   21   22 ar
    44   21   49 1
    45   22   23 ar
    46   22   50 1
    47   23   28 ar
    48   23   24 ar
    49   24   25 ar
    50   25   26 ar
    51   26   27 ar
    52   26   51 1
    53   27   28 ar
    54   27   52 1
    55   28   53 1
@<TRIPOS>MOLECULE
ZINC59265978
   47    49     0     0     0
SMALL
USER_CHARGES

@<TRIPOS>ATOM
      1 C1         -0.0157    1.3058    0.0092 C.2       1 <0>        -0.1413
      2 C2          0.0021   -0.0041    0.0020 C.2       1 <0>        -0.1899
      3 C3         -1.2926   -0.7753    0.0102 C.3       1 <0>         0.1322
      4 N1         -1.3176   -1.6997   -1.1260 N.pl3     1 <0>        -0.4450
      5 C4         -1.7895   -1.4484   -2.3847 C.2       1 <0>         0.1819
      6 N2         -1.6241   -2.5347   -3.0850 N.2       1 <0>        -0.2520
      7 N3         -1.0840   -3.4487   -2.3606 N.2       1 <0>        -0.2850
      8 C5         -0.8691   -2.9891   -1.1497 C.2       1 <0>         0.1666
      9 S1         -0.1425   -3.8705    0.1918 S.3       1 <0>         0.0239
     10 C6          0.2208   -5.5062   -0.5032 C.3       1 <0>        -0.1105
     11 C7          0.8640   -6.3854    0.5711 C.3       1 <0>         0.0784
     12 O1          1.1502   -7.6740    0.0236 O.3       1 <0>        -0.3076
     13 C8          1.7280   -8.5823    0.8530 C.ar      1 <0>         0.1283
     14 C9          2.0083   -8.2423    2.1685 C.ar      1 <0>        -0.2091
     15 C10         2.5952   -9.1676    3.0098 C.ar      1 <0>        -0.0800
     16 C11         2.9036  -10.4316    2.5416 C.ar      1 <0>        -0.1566
     17 C12         2.6256  -10.7727    1.2309 C.ar      1 <0>        -0.0797
     18 C13         2.0332   -9.8530    0.3873 C.ar      1 <0>        -0.1496
     19 C14        -2.3902   -0.1549   -2.8716 C.3       1 <0>         0.1544
     20 O2         -1.3579    0.6811   -3.3984 O.3       1 <0>        -0.3061
     21 C15        -1.7333    1.8940   -3.8830 C.ar      1 <0>         0.1293
     22 C16        -3.0670    2.2741   -3.8468 C.ar      1 <0>        -0.2103
     23 C17        -3.4460    3.5078   -4.3395 C.ar      1 <0>        -0.0784
     24 C18        -2.4975    4.3632   -4.8689 C.ar      1 <0>        -0.1553
     25 C19        -1.1677    3.9865   -4.9066 C.ar      1 <0>        -0.0786
     26 C20        -0.7827    2.7564   -4.4095 C.ar      1 <0>        -0.1474
     27 H1          0.9122    1.8585    0.0033 H         1 <0>         0.1104
     28 H2         -0.9582    1.8330    0.0166 H         1 <0>         0.1006
     29 H3          0.9446   -0.5313   -0.0098 H         1 <0>         0.1209
     30 H4         -1.3737   -1.3393    0.9394 H         1 <0>         0.1106
     31 H5         -2.1295   -0.0812   -0.0676 H         1 <0>         0.1040
     32 H6         -0.7046   -5.9692   -0.8455 H         1 <0>         0.1108
     33 H7          0.9064   -5.3996   -1.3439 H         1 <0>         0.1109
     34 H8          1.7895   -5.9224    0.9134 H         1 <0>         0.0756
     35 H9          0.1785   -6.4920    1.4118 H         1 <0>         0.0755
     36 H10         1.7683   -7.2550    2.5344 H         1 <0>         0.1275
     37 H11         2.8136   -8.9035    4.0339 H         1 <0>         0.1259
     38 H12         3.3627  -11.1534    3.2008 H         1 <0>         0.1250
     39 H13         2.8678  -11.7605    0.8674 H         1 <0>         0.1309
     40 H14         1.8122  -10.1214   -0.6352 H         1 <0>         0.1321
     41 H15        -3.1214   -0.3649   -3.6521 H         1 <0>         0.1037
     42 H16        -2.8807    0.3531   -2.0413 H         1 <0>         0.0825
     43 H17        -3.8084    1.6060   -3.4340 H         1 <0>         0.1273
     44 H18        -4.4842    3.8042   -4.3115 H         1 <0>         0.1266
     45 H19        -2.7959    5.3271   -5.2540 H         1 <0>         0.1255
     46 H20        -0.4287    4.6563   -5.3209 H         1 <0>         0.1309
     47 H21         0.2568    2.4644   -4.4351 H         1 <0>         0.1305
@<TRIPOS>BOND
     1    1    2 2
     2    1   27 1
     3    1   28 1
     4    2    3 1
     5    2   29 1
     6    3    4 1
     7    3   30 1
     8    3   31 1
     9    4    8 1
    10    4    5 1
    11    5    6 2
    12    5   19 1
    13    6    7 1
    14    7    8 2
    15    8    9 1
    16    9   10 1
    17   10   11 1
    18   10   32 1
    19   10   33 1
    20   11   12 1
    21   11   34 1
    22   11   35 1
    23   12   13 1
    24   13   18 ar
    25   13   14 ar
    26   14   15 ar
    27   14   36 1
    28   15   16 ar
    29   15   37 1
    30   16   17 ar
    31   16   38 1
    32   17   18 ar
    33   17   39 1
    34   18   40 1
    35   19   20 1
    36   19   41 1
    37   19   42 1
    38   20   21 1
    39   21   26 ar
    40   21   22 ar
    41   22   23 ar
    42   22   43 1
    43   23   24 ar
    44   23   44 1
    45   24   25 ar
    46   24   45 1
    47   25   26 ar
    48   25   46 1
    49   26   47 1
@<TRIPOS>MOLECULE
ZINC64292491
   48    49     0     0     0
SMALL
USER_CHARGES

@<TRIPOS>ATOM
      1 C1         -0.3950    1.7373    0.0484 C.3       1 <0>        -0.1494
      2 C2         -0.2485    0.2249   -0.1306 C.3       1 <0>        -0.1453
      3 C3         -1.6226   -0.4378   -0.0150 C.3       1 <0>         0.1573
      4 C4         -1.4993   -1.9277   -0.3403 C.3       1 <0>        -0.1444
      5 C5         -2.8924   -2.5593   -0.3746 C.3       1 <0>        -0.1582
      6 N1         -2.1294   -0.2764    1.3501 N.am      1 <0>        -0.5981
      7 C6         -3.3474    0.5008    1.5921 C.3       1 <0>         0.1019
      8 C7         -4.5725   -0.3869    1.3647 C.3       1 <0>         0.0229
      9 O1         -4.5910   -1.4320    2.3392 O.3       1 <0>        -0.3683
     10 C8         -5.7013   -2.3230    2.2150 C.3       1 <0>         0.0292
     11 C9         -1.4750   -0.8429    2.3832 C.2       1 <0>         0.6215
     12 O2         -0.4107   -1.4043    2.1956 O.2       1 <0>        -0.5221
     13 C10        -2.0425   -0.7835    3.7284 C.2       1 <0>        -0.2469
     14 C11        -1.4794   -1.1871    4.9235 C.2       1 <0>        -0.0023
     15 C12        -2.1996   -1.0379    6.0882 C.2       1 <0>        -0.2536
     16 C13        -3.4867   -0.4754    5.9991 C.2       1 <0>         0.0503
     17 S1         -3.6335   -0.1647    4.2426 S.3       1 <0>         0.2679
     18 N2         -4.1777   -0.3343    7.1237 N.2       1 <0>        -0.5527
     19 C14        -3.6955   -0.7011    8.2945 C.2       1 <0>         0.4088
     20 S2         -2.0834   -1.3284    7.8518 S.3       1 <0>         0.0318
     21 N3         -4.2839   -0.6201    9.5401 N.pl3     1 <0>        -0.5614
     22 C15        -5.6317   -0.0631    9.6787 C.3       1 <0>         0.0949
     23 C16        -3.5607   -1.0911   10.7239 C.3       1 <0>         0.0901
     24 H1          0.5840    2.2095   -0.0340 H         1 <0>         0.0547
     25 H2         -1.0550    2.1323   -0.7239 H         1 <0>         0.0509
     26 H3         -0.8183    1.9476    1.0305 H         1 <0>         0.0520
     27 H4          0.1748    0.0146   -1.1128 H         1 <0>         0.0713
     28 H5          0.4116   -0.1701    0.6417 H         1 <0>         0.0874
     29 H6         -2.3125    0.0314   -0.7165 H         1 <0>         0.0869
     30 H7         -1.0214   -2.0490   -1.3125 H         1 <0>         0.0705
     31 H8         -0.8968   -2.4180    0.4244 H         1 <0>         0.0887
     32 H9         -3.4949   -2.0691   -1.1393 H         1 <0>         0.0474
     33 H10        -2.8046   -3.6208   -0.6064 H         1 <0>         0.0520
     34 H11        -3.3703   -2.4381    0.5975 H         1 <0>         0.0672
     35 H12        -3.3480    0.8647    2.6196 H         1 <0>         0.0902
     36 H13        -3.3801    1.3478    0.9068 H         1 <0>         0.1092
     37 H14        -5.4780    0.2126    1.4578 H         1 <0>         0.0659
     38 H15        -4.5257   -0.8219    0.3664 H         1 <0>         0.0660
     39 H16        -6.6302   -1.7635    2.3257 H         1 <0>         0.0428
     40 H17        -5.6779   -2.7981    1.2343 H         1 <0>         0.0412
     41 H18        -5.6426   -3.0869    2.9903 H         1 <0>         0.0844
     42 H19        -0.4878   -1.6144    4.9444 H         1 <0>         0.1414
     43 H20        -6.3667   -0.8625    9.5848 H         1 <0>         0.0618
     44 H21        -5.7311    0.4088   10.6562 H         1 <0>         0.0800
     45 H22        -5.8003    0.6789    8.8982 H         1 <0>         0.0824
     46 H23        -2.5824   -1.4683   10.4258 H         1 <0>         0.0773
     47 H24        -3.4338   -0.2657   11.4244 H         1 <0>         0.0774
     48 H25        -4.1277   -1.8897   11.2022 H         1 <0>         0.0771
@<TRIPOS>BOND
     1    1    2 1
     2    1   24 1
     3    1   25 1
     4    1   26 1
     5    2    3 1
     6    2   27 1
     7    2   28 1
     8    3    4 1
     9    3    6 1
    10    3   29 1
    11    4    5 1
    12    4   30 1
    13    4   31 1
    14    5   32 1
    15    5   33 1
    16    5   34 1
    17    6    7 1
    18    6   11 am
    19    7    8 1
    20    7   35 1
    21    7   36 1
    22    8    9 1
    23    8   37 1
    24    8   38 1
    25    9   10 1
    26   10   39 1
    27   10   40 1
    28   10   41 1
    29   11   12 2
    30   11   13 1
    31   13   17 1
    32   13   14 2
    33   14   15 1
    34   14   42 1
    35   15   20 1
    36   15   16 2
    37   16   17 1
    38   16   18 1
    39   18   19 2
    40   19   20 1
    41   19   21 1
    42   21   22 1
    43   21   23 1
    44   22   43 1
    45   22   44 1
    46   22   45 1
    47   23   46 1
    48   23   47 1
    49   23   48 1
@<TRIPOS>MOLECULE
ZINC05170381
   57    59     0     0     0
SMALL
USER_CHARGES
[2-(1-allyl-2,5-dimethyl-pyrrol-3-yl)-2-oxo-ethyl] 2-(1,3-dioxoisoindolin-2-yl)-3-methyl-butanoate
@<TRIPOS>ATOM
      1 C1         -2.4130   -0.0787   -2.7662 C.3       1 <0>        -0.0861
      2 C2         -1.8123   -1.4004   -2.3624 C.2       1 <0>         0.0155
      3 C3         -1.6754   -2.4706   -3.1631 C.2       1 <0>        -0.1555
      4 C4         -1.0521   -3.5209   -2.3468 C.2       1 <0>        -0.2691
      5 C5         -0.8616   -2.9646   -1.0960 C.2       1 <0>         0.1223
      6 N1         -1.3176   -1.6997   -1.1260 N.pl3     1 <0>        -0.4285
      7 C6         -1.2926   -0.7753    0.0102 C.3       1 <0>         0.1230
      8 C7          0.0021   -0.0041    0.0020 C.2       1 <0>        -0.1852
      9 C8         -0.0157    1.3058    0.0092 C.2       1 <0>        -0.1566
     10 C9         -0.2492   -3.6556    0.0951 C.3       1 <0>        -0.0997
     11 C10        -0.7042   -4.8788   -2.7711 C.2       1 <0>         0.4304
     12 O1         -0.1902   -5.6471   -1.9851 O.2       1 <0>        -0.4474
     13 C11        -0.9847   -5.3218   -4.1840 C.3       1 <0>         0.0373
     14 O2         -0.5523   -6.6973   -4.3548 O.3       1 <0>        -0.3246
     15 C12        -0.7328   -7.2470   -5.5660 C.2       1 <0>         0.4578
     16 O3         -1.2355   -6.6001   -6.4541 O.2       1 <0>        -0.4870
     17 C13        -0.3085   -8.6709   -5.8181 C.3       1 <0>         0.1587
     18 H1         -0.8486   -9.3357   -5.1441 H         1 <0>         0.1472
     19 C14         1.1954   -8.8062   -5.5712 C.3       1 <0>        -0.1045
     20 C15         1.5103   -8.4292   -4.1223 C.3       1 <0>        -0.1551
     21 C16         1.6262  -10.2518   -5.8272 C.3       1 <0>        -0.1449
     22 N2         -0.6100   -9.0319   -7.2056 N.am      1 <0>        -0.5656
     23 C17        -0.1075   -8.4015   -8.2825 C.2       1 <0>         0.5808
     24 O4          0.6567   -7.4579   -8.2591 O.2       1 <0>        -0.4461
     25 C18        -0.6387   -9.0516   -9.4992 C.ar      1 <0>        -0.1344
     26 C19        -0.4745   -8.8414  -10.8589 C.ar      1 <0>        -0.0442
     27 C20        -1.1412   -9.6514  -11.7649 C.ar      1 <0>        -0.0925
     28 C21        -1.9679  -10.6664  -11.3211 C.ar      1 <0>        -0.0954
     29 C22        -2.1417  -10.8884   -9.9639 C.ar      1 <0>        -0.0420
     30 C23        -1.4817  -10.0866   -9.0466 C.ar      1 <0>        -0.1401
     31 C24        -1.4304  -10.0337   -7.5703 C.2       1 <0>         0.5799
     32 O5         -2.0287  -10.7712   -6.8134 O.2       1 <0>        -0.4583
     33 H2         -1.6301    0.5729   -3.1542 H         1 <0>         0.0736
     34 H3         -3.1652   -0.2421   -3.5380 H         1 <0>         0.0827
     35 H4         -2.8783    0.3892   -1.8986 H         1 <0>         0.0635
     36 H5         -1.9696   -2.5454   -4.1995 H         1 <0>         0.1484
     37 H6         -1.3737   -1.3393    0.9394 H         1 <0>         0.1018
     38 H7         -2.1295   -0.0812   -0.0676 H         1 <0>         0.0988
     39 H8          0.9446   -0.5313   -0.0098 H         1 <0>         0.1168
     40 H9          0.9122    1.8585    0.0033 H         1 <0>         0.1074
     41 H10        -0.9582    1.8330    0.0166 H         1 <0>         0.1015
     42 H11        -1.0318   -4.1507    0.6700 H         1 <0>         0.0817
     43 H12         0.4742   -4.3959   -0.2467 H         1 <0>         0.1008
     44 H13         0.2530   -2.9199    0.7234 H         1 <0>         0.0676
     45 H14        -1.9659   -5.2558   -4.3654 H         1 <0>         0.0916
     46 H15        -0.4427   -4.6815   -4.8799 H         1 <0>         0.1051
     47 H16         1.7355   -8.1413   -6.2453 H         1 <0>         0.0924
     48 H17         0.9702   -9.0940   -3.4482 H         1 <0>         0.0639
     49 H18         2.5817   -8.5256   -3.9464 H         1 <0>         0.0668
     50 H19         1.2034   -7.3993   -3.9399 H         1 <0>         0.0839
     51 H20         1.4019  -10.5204   -6.8595 H         1 <0>         0.0499
     52 H21         2.6976  -10.3482   -5.6514 H         1 <0>         0.0706
     53 H22         1.0861  -10.9167   -5.1532 H         1 <0>         0.0646
     54 H23         0.1704   -8.0500  -11.2113 H         1 <0>         0.1435
     55 H24        -1.0135   -9.4885  -12.8249 H         1 <0>         0.1443
     56 H25        -2.4822  -11.2907  -12.0368 H         1 <0>         0.1444
     57 H26        -2.7892  -11.6827   -9.6229 H         1 <0>         0.1440
@<TRIPOS>BOND
     1    1    2 1
     2    1   33 1
     3    1   34 1
     4    1   35 1
     5    2    6 1
     6    2    3 2
     7    3    4 1
     8    3   36 1
     9    4    5 2
    10    4   11 1
    11    5    6 1
    12    5   10 1
    13    6    7 1
    14    7    8 1
    15    7   37 1
    16    7   38 1
    17    8    9 2
    18    8   39 1
    19    9   40 1
    20    9   41 1
    21   10   42 1
    22   10   43 1
    23   10   44 1
    24   11   12 2
    25   11   13 1
    26   13   14 1
    27   13   45 1
    28   13   46 1
    29   14   15 1
    30   15   16 2
    31   15   17 1
    32   17   18 1
    33   17   19 1
    34   17   22 1
    35   19   20 1
    36   19   21 1
    37   19   47 1
    38   20   48 1
    39   20   49 1
    40   20   50 1
    41   21   51 1
    42   21   52 1
    43   21   53 1
    44   22   31 am
    45   22   23 am
    46   23   24 2
    47   23   25 1
    48   25   30 ar
    49   25   26 ar
    50   26   27 ar
    51   26   54 1
    52   27   28 ar
    53   27   55 1
    54   28   29 ar
    55   28   56 1
    56   29   30 ar
    57   29   57 1
    58   30   31 1
    59   31   32 2
@<TRIPOS>MOLECULE
ZINC10694723
   53    55     0     0     0
SMALL
USER_CHARGES
(2-cyanoethyl-phenyl-carbamoyl)methyl 3-(2,5-dimethyl-1-thiazol-2-yl-pyrrol-3-yl)prop-2-enoate
@<TRIPOS>ATOM
      1 C1         -8.4014   -5.2855    5.5942 C.3       1 <0>        -0.0942
      2 C2         -7.4542   -5.3853    4.4264 C.2       1 <0>         0.0111
      3 C3         -6.5784   -4.4380    4.0510 C.2       1 <0>        -0.1332
      4 C4         -5.8742   -4.9610    2.8732 C.2       1 <0>        -0.1722
      5 C5         -6.3980   -6.2177    2.6426 C.2       1 <0>         0.1059
      6 N1         -7.3451   -6.4571    3.5837 N.pl3     1 <0>        -0.3507
      7 C6         -8.0981   -7.6254    3.6780 C.2       1 <0>         0.2714
      8 N2         -8.0635   -8.6973    2.9112 N.2       1 <0>        -0.5227
      9 C7         -8.8496   -9.7290    3.1428 C.2       1 <0>         0.0505
     10 C8         -9.7109   -9.6633    4.1886 C.2       1 <0>        -0.2284
     11 S1         -9.3285   -8.0403    4.8311 S.3       1 <0>         0.1175
     12 C9         -5.9892   -7.1584    1.5384 C.3       1 <0>        -0.1007
     13 C10        -4.8236   -4.2878    2.1022 C.2       1 <0>         0.0666
     14 C11        -4.4146   -3.0469    2.4556 C.2       1 <0>        -0.2298
     15 C12        -3.4015   -2.3977    1.7121 C.2       1 <0>         0.5095
     16 O1         -2.8975   -2.9549    0.7548 O.2       1 <0>        -0.5196
     17 O2         -2.9937   -1.1603    2.0645 O.3       1 <0>        -0.3280
     18 C13        -1.9666   -0.5647    1.2692 C.3       1 <0>         0.0494
     19 C14        -1.6441    0.8049    1.8088 C.2       1 <0>         0.5206
     20 O3         -2.2355    1.2292    2.7790 O.2       1 <0>        -0.4886
     21 N3         -0.6984    1.5583    1.2133 N.am      1 <0>        -0.5687
     22 C15        -0.0651    1.0957   -0.0240 C.3       1 <0>         0.1086
     23 C16        -0.8634    1.6036   -1.2264 C.3       1 <0>        -0.0470
     24 C17        -0.2270    1.1388   -2.4697 C.1       1 <0>         0.2023
     25 N4          0.2641    0.7801   -3.4292 N.1       1 <0>        -0.4172
     26 C18        -0.3215    2.7823    1.7770 C.ar      1 <0>         0.1328
     27 C19        -1.2184    3.8423    1.8022 C.ar      1 <0>        -0.1016
     28 C20        -0.8454    5.0472    2.3648 C.ar      1 <0>        -0.1089
     29 C21         0.4235    5.2025    2.8920 C.ar      1 <0>        -0.1145
     30 C22         1.3210    4.1508    2.8629 C.ar      1 <0>        -0.1097
     31 C23         0.9521    2.9414    2.3072 C.ar      1 <0>        -0.1172
     32 H1         -7.9155   -5.6718    6.4902 H         1 <0>         0.0840
     33 H2         -8.6762   -4.2424    5.7509 H         1 <0>         0.0982
     34 H3         -9.2976   -5.8700    5.3861 H         1 <0>         0.0673
     35 H4         -6.4241   -3.4785    4.5220 H         1 <0>         0.1623
     36 H5         -8.8119  -10.6050    2.5121 H         1 <0>         0.1804
     37 H6        -10.4289  -10.3909    4.5370 H         1 <0>         0.2048
     38 H7         -5.1765   -7.7959    1.8865 H         1 <0>         0.0830
     39 H8         -6.8405   -7.7772    1.2547 H         1 <0>         0.0935
     40 H9         -5.6551   -6.5823    0.6755 H         1 <0>         0.0858
     41 H10        -4.3763   -4.7822    1.2526 H         1 <0>         0.1384
     42 H11        -4.8619   -2.5524    3.3052 H         1 <0>         0.1412
     43 H12        -2.3099   -0.4775    0.2383 H         1 <0>         0.1015
     44 H13        -1.0732   -1.1883    1.3031 H         1 <0>         0.1033
     45 H14        -0.0440    0.0060   -0.0360 H         1 <0>         0.0970
     46 H15         0.9538    1.4794   -0.0761 H         1 <0>         0.1011
     47 H16        -1.8823    1.2199   -1.1743 H         1 <0>         0.1125
     48 H17        -0.8844    2.6934   -1.2144 H         1 <0>         0.1185
     49 H18        -2.2080    3.7231    1.3863 H         1 <0>         0.1254
     50 H19        -1.5441    5.8704    2.3891 H         1 <0>         0.1282
     51 H20         0.7144    6.1472    3.3271 H         1 <0>         0.1262
     52 H21         2.3113    4.2752    3.2754 H         1 <0>         0.1282
     53 H22         1.6534    2.1205    2.2848 H         1 <0>         0.1262
@<TRIPOS>BOND
     1    1    2 1
     2    1   32 1
     3    1   33 1
     4    1   34 1
     5    2    6 1
     6    2    3 2
     7    3    4 1
     8    3   35 1
     9    4    5 2
    10    4   13 1
    11    5    6 1
    12    5   12 1
    13    6    7 1
    14    7   11 1
    15    7    8 2
    16    8    9 1
    17    9   10 2
    18    9   36 1
    19   10   11 1
    20   10   37 1
    21   12   38 1
    22   12   39 1
    23   12   40 1
    24   13   14 2
    25   13   41 1
    26   14   15 1
    27   14   42 1
    28   15   16 2
    29   15   17 1
    30   17   18 1
    31   18   19 1
    32   18   43 1
    33   18   44 1
    34   19   20 2
    35   19   21 am
    36   21   22 1
    37   21   26 1
    38   22   23 1
    39   22   45 1
    40   22   46 1
    41   23   24 1
    42   23   47 1
    43   23   48 1
    44   24   25 3
    45   26   31 ar
    46   26   27 ar
    47   27   28 ar
    48   27   49 1
    49   28   29 ar
    50   28   50 1
    51   29   30 ar
    52   29   51 1
    53   30   31 ar
    54   30   52 1
    55   31   53 1
@<TRIPOS>MOLECULE
ZINC24360433
   49    51     0     0     0
SMALL
USER_CHARGES
[2-(2-cyanoethyl-phenyl-amino)-2-oxo-ethyl] 3-(thiazol-4-ylmethoxy)benzoate
@<TRIPOS>ATOM
      1 C1          0.4238    5.2028    2.8911 C.ar      1 <0>        -0.1137
      2 C2          1.3211    4.1510    2.8624 C.ar      1 <0>        -0.1095
      3 C3          0.9520    2.9414    2.3072 C.ar      1 <0>        -0.1168
      4 C4         -0.3216    2.7823    1.7770 C.ar      1 <0>         0.1318
      5 C5         -1.2184    3.8423    1.8021 C.ar      1 <0>        -0.1014
      6 C6         -0.8451    5.0475    2.3639 C.ar      1 <0>        -0.1088
      7 N1         -0.6984    1.5583    1.2133 N.am      1 <0>        -0.5670
      8 C7         -0.0651    1.0957   -0.0240 C.3       1 <0>         0.1054
      9 C8         -0.8634    1.6036   -1.2264 C.3       1 <0>        -0.0490
     10 C9         -0.2270    1.1388   -2.4697 C.1       1 <0>         0.2016
     11 N2          0.2641    0.7801   -3.4292 N.1       1 <0>        -0.4163
     12 C10        -1.6441    0.8049    1.8088 C.2       1 <0>         0.5214
     13 O1         -2.2355    1.2292    2.7790 O.2       1 <0>        -0.4882
     14 C11        -1.9666   -0.5647    1.2692 C.3       1 <0>         0.0458
     15 O2         -3.0102   -1.1699    2.0773 O.3       1 <0>        -0.3253
     16 C12        -3.4172   -2.4050    1.7256 C.2       1 <0>         0.5155
     17 O3         -2.9141   -2.9611    0.7700 O.2       1 <0>        -0.4969
     18 C13        -4.4755   -3.0830    2.5021 C.ar      1 <0>        -0.0887
     19 C14        -5.0516   -2.4484    3.6047 C.ar      1 <0>        -0.0932
     20 C15        -6.0428   -3.0826    4.3245 C.ar      1 <0>        -0.0897
     21 C16        -6.4615   -4.3506    3.9643 C.ar      1 <0>        -0.1689
     22 C17        -5.8911   -4.9917    2.8731 C.ar      1 <0>         0.1224
     23 C18        -4.8990   -4.3624    2.1401 C.ar      1 <0>        -0.0841
     24 O4         -6.3064   -6.2379    2.5243 O.3       1 <0>        -0.3097
     25 C19        -7.3333   -6.8273    3.3244 C.3       1 <0>         0.1346
     26 C20        -7.6612   -8.1980    2.7911 C.2       1 <0>         0.0397
     27 C21        -7.0172   -8.6934    1.7036 C.2       1 <0>        -0.1753
     28 S1         -7.8016  -10.2924    1.5576 S.3       1 <0>         0.0500
     29 C22        -8.8789  -10.1382    2.9110 C.2       1 <0>         0.0747
     30 N3         -8.5832   -8.9422    3.3652 N.2       1 <0>        -0.5041
     31 H1          0.7149    6.1476    3.3258 H         1 <0>         0.1265
     32 H2          2.3114    4.2754    3.2750 H         1 <0>         0.1285
     33 H3          1.6533    2.1203    2.2852 H         1 <0>         0.1263
     34 H4         -2.2082    3.7229    1.3869 H         1 <0>         0.1254
     35 H5         -1.5436    5.8709    2.3878 H         1 <0>         0.1284
     36 H6          0.9632    1.4829   -0.0766 H         1 <0>         0.1033
     37 H7         -0.0438   -0.0040   -0.0361 H         1 <0>         0.0980
     38 H8         -1.8916    1.2164   -1.1738 H         1 <0>         0.1134
     39 H9         -0.8847    2.7033   -1.2143 H         1 <0>         0.1203
     40 H10        -2.3130   -0.4767    0.2289 H         1 <0>         0.1087
     41 H11        -1.0650   -1.1940    1.3034 H         1 <0>         0.1106
     42 H12        -4.7241   -1.4599    3.8911 H         1 <0>         0.1451
     43 H13        -6.4905   -2.5892    5.1744 H         1 <0>         0.1388
     44 H14        -7.2348   -4.8439    4.5344 H         1 <0>         0.1379
     45 H15        -4.4548   -4.8600    1.2907 H         1 <0>         0.1478
     46 H16        -6.9846   -6.9122    4.3642 H         1 <0>         0.0862
     47 H17        -8.2331   -6.1955    3.2898 H         1 <0>         0.0862
     48 H18        -6.2442   -8.2460    1.0963 H         1 <0>         0.2037
     49 H19        -9.6060  -10.8446    3.2833 H         1 <0>         0.2281
@<TRIPOS>BOND
     1    1    6 ar
     2    1    2 ar
     3    1   31 1
     4    2    3 ar
     5    2   32 1
     6    3    4 ar
     7    3   33 1
     8    4    5 ar
     9    4    7 1
    10    5    6 ar
    11    5   34 1
    12    6   35 1
    13    7    8 1
    14    7   12 am
    15    8    9 1
    16    8   36 1
    17    8   37 1
    18    9   10 1
    19    9   38 1
    20    9   39 1
    21   10   11 3
    22   12   13 2
    23   12   14 1
    24   14   15 1
    25   14   40 1
    26   14   41 1
    27   15   16 1
    28   16   17 2
    29   16   18 1
    30   18   23 ar
    31   18   19 ar
    32   19   20 ar
    33   19   42 1
    34   20   21 ar
    35   20   43 1
    36   21   22 ar
    37   21   44 1
    38   22   23 ar
    39   22   24 1
    40   23   45 1
    41   24   25 1
    42   25   26 1
    43   25   46 1
    44   25   47 1
    45   26   30 1
    46   26   27 2
    47   27   28 1
    48   27   48 1
    49   28   29 1
    50   29   30 2
    51   29   49 1
@<TRIPOS>MOLECULE
ZINC36614130
   51    53     0     0     0
SMALL
USER_CHARGES

@<TRIPOS>ATOM
      1 C1         -0.0187    1.5258    0.0104 C.3       1 <0>        -0.1529
      2 C2          0.0021   -0.0041    0.0020 C.3       1 <0>         0.0624
      3 O1          0.6709   -0.4649   -1.1737 O.3       1 <0>        -0.3499
      4 C3          0.7760   -1.8004   -1.3350 C.2       1 <0>         0.5654
      5 O2          0.3117   -2.5525   -0.4989 O.2       1 <0>        -0.4915
      6 C4          1.4475   -2.3435   -2.5138 C.2       1 <0>        -0.3084
      7 C5          1.6629   -3.6652   -2.8823 C.2       1 <0>         0.2062
      8 N1          2.3024   -3.8577   -4.0076 N.2       1 <0>        -0.5309
      9 C6          2.7175   -2.8456   -4.7477 C.2       1 <0>         0.2914
     10 S1          2.2122   -1.4920   -3.8847 S.3       1 <0>         0.2051
     11 N2          3.4002   -2.8881   -5.9505 N.am      1 <0>        -0.5060
     12 C7          3.7763   -1.6425   -6.6238 C.3       1 <0>         0.1209
     13 C8          5.1409   -1.2095   -6.1535 C.2       1 <0>        -0.1960
     14 C9          6.0946   -0.9897   -7.0243 C.2       1 <0>        -0.1518
     15 C10         3.7192   -4.0754   -6.5027 C.2       1 <0>         0.4919
     16 O3          3.4079   -5.1065   -5.9454 O.2       1 <0>        -0.4349
     17 C11         4.4627   -4.1218   -7.8127 C.3       1 <0>         0.1233
     18 N3          4.6877   -5.5173   -8.1974 N.pl3     1 <0>        -0.3387
     19 C12         5.7584   -6.2721   -7.8621 C.2       1 <0>         0.0697
     20 C13         5.5874   -7.4958   -8.4096 C.2       1 <0>        -0.2219
     21 C14         4.3699   -7.4897   -9.1042 C.2       1 <0>         0.0261
     22 N4          3.8293   -6.3067   -8.9720 N.2       1 <0>        -0.2389
     23 C15         3.7822   -8.6492   -9.8666 C.3       1 <0>         0.3592
     24 F1          3.0101   -8.1657  -10.9284 F         1 <0>        -0.1904
     25 F2          4.8148   -9.4494  -10.3673 F         1 <0>        -0.1871
     26 C16         6.7590   -8.3910   -8.0676 C.3       1 <0>        -0.0467
     27 C17         7.8741   -7.4296   -7.6013 C.3       1 <0>        -0.1133
     28 C18         7.0621   -6.2172   -7.0959 C.3       1 <0>        -0.0477
     29 C19         1.1866   -4.8148   -2.0322 C.3       1 <0>        -0.0939
     30 H1          1.0039    1.9031    0.0027 H         1 <0>         0.0673
     31 H2         -0.5459    1.8868   -0.8726 H         1 <0>         0.0674
     32 H3         -0.5289    1.8773    0.9072 H         1 <0>         0.0824
     33 H4          0.5293   -0.3651    0.8851 H         1 <0>         0.0710
     34 H5         -1.0205   -0.3814    0.0098 H         1 <0>         0.0711
     35 H6          3.7978   -1.8042   -7.7015 H         1 <0>         0.1109
     36 H7          3.0475   -0.8672   -6.3872 H         1 <0>         0.1074
     37 H8          5.3327   -1.0803   -5.0985 H         1 <0>         0.1219
     38 H9          7.0726   -0.6794   -6.6872 H         1 <0>         0.1126
     39 H10         5.9029   -1.1189   -8.0792 H         1 <0>         0.1052
     40 H11         3.8739   -3.6231   -8.5825 H         1 <0>         0.1346
     41 H12         5.4220   -3.6157   -7.7041 H         1 <0>         0.1325
     42 H13         3.1542   -9.2410   -9.2007 H         1 <0>         0.1327
     43 H14         6.4898   -9.0768   -7.2643 H         1 <0>         0.0786
     44 H15         7.0814   -8.9461   -8.9485 H         1 <0>         0.0791
     45 H16         8.4570   -7.8721   -6.7935 H         1 <0>         0.0867
     46 H17         8.5178   -7.1469   -8.4343 H         1 <0>         0.0792
     47 H18         7.5908   -5.2893   -7.3140 H         1 <0>         0.0802
     48 H19         6.8764   -6.3057   -6.0255 H         1 <0>         0.0912
     49 H20         0.1778   -5.0964   -2.3341 H         1 <0>         0.0878
     50 H21         1.8557   -5.6652   -2.1633 H         1 <0>         0.0818
     51 H22         1.1818   -4.5144   -0.9845 H         1 <0>         0.0975
@<TRIPOS>BOND
     1    1    2 1
     2    1   30 1
     3    1   31 1
     4    1   32 1
     5    2    3 1
     6    2   33 1
     7    2   34 1
     8    3    4 1
     9    4    5 2
    10    4    6 1
    11    6   10 1
    12    6    7 2
    13    7    8 1
    14    7   29 1
    15    8    9 2
    16    9   10 1
    17    9   11 1
    18   11   12 1
    19   11   15 am
    20   12   13 1
    21   12   35 1
    22   12   36 1
    23   13   14 2
    24   13   37 1
    25   14   38 1
    26   14   39 1
    27   15   16 2
    28   15   17 1
    29   17   18 1
    30   17   40 1
    31   17   41 1
    32   18   22 1
    33   18   19 1
    34   19   28 1
    35   19   20 2
    36   20   21 1
    37   20   26 1
    38   21   22 2
    39   21   23 1
    40   23   24 1
    41   23   25 1
    42   23   42 1
    43   26   27 1
    44   26   43 1
    45   26   44 1
    46   27   28 1
    47   27   45 1
    48   27   46 1
    49   28   47 1
    50   28   48 1
    51   29   49 1
    52   29   50 1
    53   29   51 1
@<TRIPOS>MOLECULE
ZINC60140759
   66    67     0     0     0
SMALL
USER_CHARGES

@<TRIPOS>ATOM
      1 C1         -0.0187    1.5258    0.0104 C.3       1 <0>        -0.1783
      2 C2          0.0021   -0.0041    0.0020 C.3       1 <0>         0.1087
      3 N1         -1.3723   -0.5112    0.0124 N.pl3     1 <0>        -0.9954
      4 C3         -2.1099   -0.6542   -1.2453 C.3       1 <0>         0.1189
      5 C4         -1.7727   -2.0031   -1.8836 C.3       1 <0>        -0.1750
      6 S1         -2.0922   -0.9227    1.4458 S.o2      1 <0>         2.6922
      7 O1         -3.1158   -1.8572    1.1326 O.2       1 <0>        -0.9509
      8 O2         -1.0428   -1.2191    2.3570 O.2       1 <0>        -0.9533
      9 C5         -2.8976    0.5202    2.0575 C.ar      1 <0>        -0.6824
     10 C6         -2.2061    1.3946    2.8840 C.ar      1 <0>        -0.0205
     11 C7         -2.8203    2.5282    3.3717 C.ar      1 <0>        -0.1211
     12 C8         -4.1397    2.7956    3.0322 C.ar      1 <0>         0.0908
     13 C9         -4.8392    1.9103    2.1950 C.ar      1 <0>         0.0267
     14 C10        -4.1946    0.7698    1.7087 C.ar      1 <0>         0.0527
     15 N2         -6.0883    2.4189    2.0370 N.2       1 <0>        -0.4759
     16 C11        -6.1961    3.5296    2.7061 C.2       1 <0>         0.2885
     17 N3         -5.0248    3.8098    3.3387 N.pl3     1 <0>        -0.4893
     18 C12        -4.7532    4.9721    4.1881 C.3       1 <0>         0.0726
     19 C13        -7.4373    4.3817    2.7704 C.3       1 <0>        -0.0281
     20 C14        -8.3047    3.9313    3.9475 C.3       1 <0>        -0.1367
     21 C15        -9.5460    4.7834    4.0119 C.2       1 <0>         0.5195
     22 O3         -9.7198    5.6642    3.1964 O.2       1 <0>        -0.5362
     23 N4        -10.4630    4.5667    4.9755 N.am      1 <0>        -0.6035
     24 C16       -10.2530    3.5027    5.9605 C.3       1 <0>         0.0992
     25 C17        -9.4951    4.0649    7.1648 C.3       1 <0>        -0.1786
     26 C18       -11.6697    5.3950    5.0380 C.3       1 <0>         0.1389
     27 H1        -11.6503    6.1268    4.2304 H         1 <0>         0.1025
     28 C19       -11.7203    6.1217    6.3835 C.3       1 <0>        -0.1659
     29 C20       -12.9065    4.5063    4.8915 C.3       1 <0>        -0.1050
     30 C21       -14.1667    5.3715    4.9568 C.3       1 <0>        -0.1484
     31 C22       -12.8559    3.7797    3.5460 C.3       1 <0>        -0.1446
     32 H2          1.0039    1.9031    0.0027 H         1 <0>         0.0706
     33 H3         -0.5459    1.8868   -0.8726 H         1 <0>         0.0609
     34 H4         -0.5289    1.8773    0.9072 H         1 <0>         0.0567
     35 H5          0.5123   -0.3556   -0.8948 H         1 <0>         0.0862
     36 H6          0.5293   -0.3651    0.8851 H         1 <0>         0.0945
     37 H7         -3.1804   -0.6037   -1.0465 H         1 <0>         0.0818
     38 H8         -1.8283    0.1500   -1.9251 H         1 <0>         0.0811
     39 H9         -2.3215   -2.1096   -2.8194 H         1 <0>         0.0699
     40 H10        -0.7022   -2.0536   -2.0825 H         1 <0>         0.0599
     41 H11        -2.0544   -2.8073   -1.2038 H         1 <0>         0.0642
     42 H12        -1.1798    1.1853    3.1473 H         1 <0>         0.1467
     43 H13        -2.2779    3.2050    4.0152 H         1 <0>         0.1323
     44 H14        -4.7221    0.0847    1.0615 H         1 <0>         0.1472
     45 H15        -4.3675    5.7873    3.5759 H         1 <0>         0.0812
     46 H16        -5.6749    5.2889    4.6761 H         1 <0>         0.0909
     47 H17        -4.0150    4.7049    4.9443 H         1 <0>         0.0893
     48 H18        -7.1548    5.4257    2.9058 H         1 <0>         0.0949
     49 H19        -7.9998    4.2749    1.8428 H         1 <0>         0.1128
     50 H20        -8.5873    2.8873    3.8121 H         1 <0>         0.1048
     51 H21        -7.7422    4.0381    4.8751 H         1 <0>         0.0934
     52 H22       -11.2178    3.1145    6.2872 H         1 <0>         0.0840
     53 H23        -9.6721    2.6987    5.5086 H         1 <0>         0.0799
     54 H24        -8.5304    4.4531    6.8380 H         1 <0>         0.0546
     55 H25       -10.0761    4.8689    7.6167 H         1 <0>         0.0681
     56 H26        -9.3389    3.2733    7.8976 H         1 <0>         0.0682
     57 H27       -10.8392    6.7548    6.4879 H         1 <0>         0.0581
     58 H28       -12.6182    6.7380    6.4300 H         1 <0>         0.0714
     59 H29       -11.7397    5.3899    7.1911 H         1 <0>         0.0623
     60 H30       -12.9259    3.7746    5.6991 H         1 <0>         0.0721
     61 H31       -14.1474    6.1032    4.1491 H         1 <0>         0.0577
     62 H32       -15.0479    4.7383    4.8524 H         1 <0>         0.0587
     63 H33       -14.2028    5.8891    5.9153 H         1 <0>         0.0597
     64 H34       -13.7370    3.1466    3.4416 H         1 <0>         0.0553
     65 H35       -12.8365    4.5114    2.7384 H         1 <0>         0.0563
     66 H36       -11.9580    3.1634    3.4995 H         1 <0>         0.0522
@<TRIPOS>BOND
     1    1    2 1
     2    1   32 1
     3    1   33 1
     4    1   34 1
     5    2    3 1
     6    2   35 1
     7    2   36 1
     8    3    4 1
     9    3    6 1
    10    4    5 1
    11    4   37 1
    12    4   38 1
    13    5   39 1
    14    5   40 1
    15    5   41 1
    16    6    7 2
    17    6    8 2
    18    6    9 1
    19    9   14 ar
    20    9   10 ar
    21   10   11 ar
    22   10   42 1
    23   11   12 ar
    24   11   43 1
    25   12   17 1
    26   12   13 ar
    27   13   14 ar
    28   13   15 1
    29   14   44 1
    30   15   16 2
    31   16   17 1
    32   16   19 1
    33   17   18 1
    34   18   45 1
    35   18   46 1
    36   18   47 1
    37   19   20 1
    38   19   48 1
    39   19   49 1
    40   20   21 1
    41   20   50 1
    42   20   51 1
    43   21   22 2
    44   21   23 am
    45   23   24 1
    46   23   26 1
    47   24   25 1
    48   24   52 1
    49   24   53 1
    50   25   54 1
    51   25   55 1
    52   25   56 1
    53   26   27 1
    54   26   28 1
    55   26   29 1
    56   28   57 1
    57   28   58 1
    58   28   59 1
    59   29   30 1
    60   29   31 1
    61   29   60 1
    62   30   61 1
    63   30   62 1
    64   30   63 1
    65   31   64 1
    66   31   65 1
    67   31   66 1
@<TRIPOS>MOLECULE
ZINC06761171
   54    56     0     0     0
SMALL
USER_CHARGES
N-allyl-N-[(2-furylmethyl-(tetrahydrofuran-2-ylmethyl)carbamoyl)methyl]cyclobutanecarboxamide
@<TRIPOS>ATOM
      1 C1         -8.2084    1.1692    4.9248 C.2       1 <0>        -0.1724
      2 C2         -7.6624    1.5360    3.7919 C.2       1 <0>        -0.1801
      3 C3         -6.5410    0.7232    3.1979 C.3       1 <0>         0.1385
      4 N1         -6.8902    0.3366    1.8287 N.am      1 <0>        -0.5915
      5 C4         -6.5265    1.2056    0.7067 C.3       1 <0>         0.0882
      6 C5         -5.1606    0.8234    0.1975 C.2       1 <0>         0.5062
      7 O1         -4.5510   -0.0855    0.7203 O.2       1 <0>        -0.5012
      8 N2         -4.6165    1.4915   -0.8388 N.am      1 <0>        -0.6091
      9 C6         -5.3529    2.5893   -1.4703 C.3       1 <0>         0.1898
     10 C7         -6.2002    2.0461   -2.5920 C.2       1 <0>        -0.0469
     11 C8         -7.4659    1.6050   -2.4792 C.2       1 <0>        -0.1857
     12 C9         -7.8721    1.1917   -3.7688 C.2       1 <0>        -0.2110
     13 C10        -6.8275    1.3972   -4.5909 C.2       1 <0>        -0.0327
     14 O2         -5.8176    1.9148   -3.8726 O.3       1 <0>        -0.1727
     15 C11        -3.2887    1.1199   -1.3338 C.3       1 <0>         0.1177
     16 C12        -2.2226    1.9242   -0.5872 C.3       1 <0>         0.0616
     17 H1         -2.4427    2.9892   -0.6610 H         1 <0>         0.0676
     18 C13        -0.8325    1.6338   -1.1855 C.3       1 <0>        -0.1501
     19 C14        -0.0127    1.0858    0.0080 C.3       1 <0>        -0.1543
     20 C15        -0.8104    1.6215    1.2242 C.3       1 <0>         0.0454
     21 O3         -2.1859    1.5242    0.7930 O.3       1 <0>        -0.3556
     22 C16        -7.5461   -0.8187    1.6012 C.2       1 <0>         0.5339
     23 O4         -7.8353   -1.1388    0.4677 O.2       1 <0>        -0.5331
     24 C17        -7.9203   -1.7126    2.7553 C.3       1 <0>        -0.1378
     25 C18        -6.7759   -2.6278    3.2218 C.3       1 <0>        -0.1213
     26 C19        -7.8328   -3.7321    3.3901 C.3       1 <0>        -0.1418
     27 C20        -8.6630   -2.9900    2.3294 C.3       1 <0>        -0.1181
     28 H2         -9.0121    1.7517    5.3504 H         1 <0>         0.1025
     29 H3         -7.8549    0.2843    5.4331 H         1 <0>         0.0998
     30 H4         -8.0160    2.4209    3.2836 H         1 <0>         0.1120
     31 H5         -6.3831   -0.1721    3.7992 H         1 <0>         0.0894
     32 H6         -5.6279    1.3184    3.1857 H         1 <0>         0.0893
     33 H7         -6.5126    2.2431    1.0405 H         1 <0>         0.1050
     34 H8         -7.2577    1.0910   -0.0935 H         1 <0>         0.1154
     35 H9         -5.9936    3.0697   -0.7309 H         1 <0>         0.1103
     36 H10        -4.6473    3.3185   -1.8683 H         1 <0>         0.1002
     37 H11        -8.0589    1.5747   -1.5770 H         1 <0>         0.1475
     38 H12        -8.8349    0.7849   -4.0407 H         1 <0>         0.1496
     39 H13        -6.8048    1.1826   -5.6491 H         1 <0>         0.2040
     40 H14        -3.2253    1.3349   -2.4005 H         1 <0>         0.0898
     41 H15        -3.1236    0.0554   -1.1673 H         1 <0>         0.0918
     42 H16        -0.3830    2.5499   -1.5684 H         1 <0>         0.0778
     43 H17        -0.9034    0.8857   -1.9750 H         1 <0>         0.0794
     44 H18         0.0021   -0.0041    0.0020 H         1 <0>         0.0774
     45 H19         1.0008    1.4868    0.0005 H         1 <0>         0.0796
     46 H20        -0.6374    0.9981    2.1014 H         1 <0>         0.0912
     47 H21        -0.5453    2.6584    1.4306 H         1 <0>         0.0578
     48 H22        -8.4087   -1.1736    3.5671 H         1 <0>         0.1132
     49 H23        -6.0422   -2.8404    2.4442 H         1 <0>         0.0875
     50 H24        -6.3200   -2.3130    4.1605 H         1 <0>         0.0738
     51 H25        -8.2965   -3.7460    4.3764 H         1 <0>         0.0836
     52 H26        -7.4916   -4.7158    3.0677 H         1 <0>         0.0730
     53 H27        -9.7307   -2.9676    2.5478 H         1 <0>         0.0717
     54 H28        -8.4453   -3.3017    1.3079 H         1 <0>         0.0939
@<TRIPOS>BOND
     1    1    2 2
     2    1   28 1
     3    1   29 1
     4    2    3 1
     5    2   30 1
     6    3    4 1
     7    3   31 1
     8    3   32 1
     9    4    5 1
    10    4   22 am
    11    5    6 1
    12    5   33 1
    13    5   34 1
    14    6    7 2
    15    6    8 am
    16    8    9 1
    17    8   15 1
    18    9   10 1
    19    9   35 1
    20    9   36 1
    21   10   14 1
    22   10   11 2
    23   11   12 1
    24   11   37 1
    25   12   13 2
    26   12   38 1
    27   13   14 1
    28   13   39 1
    29   15   16 1
    30   15   40 1
    31   15   41 1
    32   16   17 1
    33   16   21 1
    34   16   18 1
    35   18   19 1
    36   18   42 1
    37   18   43 1
    38   19   20 1
    39   19   44 1
    40   19   45 1
    41   20   21 1
    42   20   46 1
    43   20   47 1
    44   22   23 2
    45   22   24 1
    46   24   27 1
    47   24   25 1
    48   24   48 1
    49   25   26 1
    50   25   49 1
    51   25   50 1
    52   26   27 1
    53   26   51 1
    54   26   52 1
    55   27   53 1
    56   27   54 1
@<TRIPOS>MOLECULE
ZINC38020872
   40    40     0     0     0
SMALL
USER_CHARGES

@<TRIPOS>ATOM
      1 C1         -0.0187    1.5258    0.0104 C.3       1 <0>        -0.1533
      2 C2          0.0021   -0.0041    0.0020 C.3       1 <0>        -0.1439
      3 C3         -1.4333   -0.5336    0.0129 C.3       1 <0>         0.1019
      4 N1         -1.4134   -1.9985    0.0048 N.am      1 <0>        -0.5953
      5 C4         -1.3914   -2.7377    1.2694 C.3       1 <0>         0.1259
      6 C5         -2.8045   -3.0105    1.7165 C.2       1 <0>         0.4408
      7 O1         -3.7345   -2.6269    1.0475 O.2       1 <0>        -0.4924
      8 O2         -3.0298   -3.6798    2.8580 O.3       1 <0>        -0.3530
      9 C6         -4.3939   -3.9029    3.2208 C.3       1 <0>         0.0609
     10 C7         -4.4510   -4.6750    4.5405 C.3       1 <0>        -0.1521
     11 C8         -1.4154   -2.6660   -1.1660 C.2       1 <0>         0.5117
     12 O3         -1.3990   -3.8787   -1.1727 O.2       1 <0>        -0.5151
     13 C9         -1.4381   -1.9056   -2.4669 C.3       1 <0>         0.0731
     14 N2         -1.4358   -2.8515   -3.5856 N.am      1 <0>        -0.4791
     15 C10        -0.2543   -3.2732   -4.1057 C.2       1 <0>         0.1795
     16 C11        -0.2271   -4.1475   -5.1394 C.2       1 <0>        -0.2001
     17 C12        -1.4281   -4.6262   -5.6830 C.2       1 <0>         0.0002
     18 C13        -2.6134   -4.2011   -5.1587 C.2       1 <0>        -0.2223
     19 C14        -2.6052   -3.2972   -4.0827 C.2       1 <0>         0.5208
     20 O4         -3.6589   -2.9127   -3.6011 O.2       1 <0>        -0.5312
     21 Br1         1.4286   -4.7219   -5.8498 Br        1 <0>        -0.0204
     22 H1          1.0039    1.9031    0.0027 H         1 <0>         0.0624
     23 H2         -0.5459    1.8868   -0.8726 H         1 <0>         0.0588
     24 H3         -0.5289    1.8773    0.9072 H         1 <0>         0.0592
     25 H4          0.5123   -0.3556   -0.8948 H         1 <0>         0.0657
     26 H5          0.5293   -0.3651    0.8851 H         1 <0>         0.0721
     27 H6         -1.9435   -0.1821    0.9097 H         1 <0>         0.0883
     28 H7         -1.9605   -0.1726   -0.8702 H         1 <0>         0.0866
     29 H8         -0.8660   -3.6823    1.1290 H         1 <0>         0.1292
     30 H9         -0.8784   -2.1458    2.0274 H         1 <0>         0.1270
     31 H10        -4.9000   -2.9447    3.3382 H         1 <0>         0.0678
     32 H11        -4.8876   -4.4812    2.4398 H         1 <0>         0.0678
     33 H12        -3.9449   -5.6332    4.4230 H         1 <0>         0.0677
     34 H13        -3.9573   -4.0966    5.3214 H         1 <0>         0.0673
     35 H14        -5.4915   -4.8451    4.8171 H         1 <0>         0.0809
     36 H15        -2.3370   -1.2908   -2.5127 H         1 <0>         0.1382
     37 H16        -0.5573   -1.2666   -2.5296 H         1 <0>         0.1278
     38 H17         0.6732   -2.9072   -3.6908 H         1 <0>         0.1699
     39 H18        -1.4146   -5.3233   -6.5077 H         1 <0>         0.1467
     40 H19        -3.5486   -4.5585   -5.5639 H         1 <0>         0.1600
@<TRIPOS>BOND
     1    1    2 1
     2    1   22 1
     3    1   23 1
     4    1   24 1
     5    2    3 1
     6    2   25 1
     7    2   26 1
     8    3    4 1
     9    3   27 1
    10    3   28 1
    11    4    5 1
    12    4   11 am
    13    5    6 1
    14    5   29 1
    15    5   30 1
    16    6    7 2
    17    6    8 1
    18    8    9 1
    19    9   10 1
    20    9   31 1
    21    9   32 1
    22   10   33 1
    23   10   34 1
    24   10   35 1
    25   11   12 2
    26   11   13 1
    27   13   14 1
    28   13   36 1
    29   13   37 1
    30   14   19 am
    31   14   15 1
    32   15   16 2
    33   15   38 1
    34   16   17 1
    35   16   21 1
    36   17   18 2
    37   17   39 1
    38   18   19 1
    39   18   40 1
    40   19   20 2
@<TRIPOS>MOLECULE
ZINC58765084
   43    45     0     0     0
SMALL
USER_CHARGES

@<TRIPOS>ATOM
      1 C1         -3.9957   -3.9353   -0.1934 C.3       1 <0>         0.0274
      2 O1         -2.9982   -3.0109    0.2454 O.3       1 <0>        -0.3754
      3 C2         -1.7550   -3.1236   -0.4502 C.3       1 <0>         0.0164
      4 C3         -0.7679   -2.0917    0.0990 C.3       1 <0>         0.0449
      5 N1         -0.4067   -2.4453    1.4783 N.3       1 <0>        -0.5264
      6 C4          0.0826   -3.8283    1.5563 C.3       1 <0>         0.0875
      7 C5          1.3833   -3.9442    0.8041 C.ar      1 <0>        -0.0811
      8 C6          1.3759   -4.2614   -0.5429 C.ar      1 <0>        -0.0870
      9 C7          2.5652   -4.3698   -1.2410 C.ar      1 <0>        -0.1176
     10 C8          3.7679   -4.1615   -0.5978 C.ar      1 <0>        -0.0673
     11 C9          3.7827   -3.8407    0.7609 C.ar      1 <0>        -0.0263
     12 C10         2.5781   -3.7282    1.4584 C.ar      1 <0>        -0.0473
     13 C11         5.0272   -3.6232    1.4350 C.1       1 <0>         0.2499
     14 N2          6.0145   -3.4506    1.9698 N.1       1 <0>        -0.4107
     15 C12        -1.5397   -2.2356    2.3895 C.3       1 <0>         0.1362
     16 C13        -1.8918   -0.7707    2.4243 C.2       1 <0>         0.1820
     17 N3         -2.8121   -0.1839    1.7123 N.2       1 <0>        -0.2584
     18 N4         -2.8424    1.0707    1.9958 N.2       1 <0>        -0.2659
     19 C14        -1.9320    1.3305    2.9089 C.2       1 <0>         0.2490
     20 O2         -1.3164    0.1659    3.2003 O.3       1 <0>        -0.2131
     21 C15        -1.6425    2.6437    3.5040 C.2       1 <0>        -0.1220
     22 C16        -2.2421    3.8643    3.2559 C.2       1 <0>        -0.0799
     23 C17        -1.7932    4.9664    3.9459 C.2       1 <0>        -0.1659
     24 C18        -0.7828    4.8230    4.8427 C.2       1 <0>        -0.1498
     25 S1         -0.4302    3.0761    4.7414 S.3       1 <0>         0.1141
     26 H1         -4.9086   -3.7856    0.3832 H         1 <0>         0.0877
     27 H2         -4.2028   -3.7715   -1.2509 H         1 <0>         0.0428
     28 H3         -3.6365   -4.9540   -0.0470 H         1 <0>         0.0393
     29 H4         -1.3494   -4.1255   -0.3092 H         1 <0>         0.0582
     30 H5         -1.9157   -2.9430   -1.5130 H         1 <0>         0.0588
     31 H6          0.1290   -2.0815   -0.5202 H         1 <0>         0.0994
     32 H7         -1.2296   -1.1044    0.0861 H         1 <0>         0.0893
     33 H8          0.2411   -4.0993    2.6001 H         1 <0>         0.0943
     34 H9         -0.6538   -4.4996    1.1144 H         1 <0>         0.0629
     35 H10         0.4372   -4.4254   -1.0513 H         1 <0>         0.1275
     36 H11         2.5523   -4.6184   -2.2920 H         1 <0>         0.1355
     37 H12         4.6957   -4.2468   -1.1439 H         1 <0>         0.1337
     38 H13         2.5822   -3.4766    2.5087 H         1 <0>         0.1350
     39 H14        -2.3987   -2.8075    2.0388 H         1 <0>         0.1227
     40 H15        -1.2666   -2.5675    3.3912 H         1 <0>         0.1048
     41 H16        -3.0436    3.9507    2.5371 H         1 <0>         0.1502
     42 H17        -2.2390    5.9354    3.7763 H         1 <0>         0.1480
     43 H18        -0.3151    5.5739    5.4623 H         1 <0>         0.1966
@<TRIPOS>BOND
     1    1    2 1
     2    1   26 1
     3    1   27 1
     4    1   28 1
     5    2    3 1
     6    3    4 1
     7    3   29 1
     8    3   30 1
     9    4    5 1
    10    4   31 1
    11    4   32 1
    12    5    6 1
    13    5   15 1
    14    6    7 1
    15    6   33 1
    16    6   34 1
    17    7   12 ar
    18    7    8 ar
    19    8    9 ar
    20    8   35 1
    21    9   10 ar
    22    9   36 1
    23   10   11 ar
    24   10   37 1
    25   11   12 ar
    26   11   13 1
    27   12   38 1
    28   13   14 3
    29   15   16 1
    30   15   39 1
    31   15   40 1
    32   16   20 1
    33   16   17 2
    34   17   18 1
    35   18   19 2
    36   19   20 1
    37   19   21 1
    38   21   25 1
    39   21   22 2
    40   22   23 1
    41   22   41 1
    42   23   24 2
    43   23   42 1
    44   24   25 1
    45   24   43 1
@<TRIPOS>MOLECULE
ZINC39996575
   51    52     0     0     0
SMALL
USER_CHARGES

@<TRIPOS>ATOM
      1 C1         -0.0187    1.5258    0.0104 C.3       1 <0>        -0.1527
      2 C2          0.0021   -0.0041    0.0020 C.3       1 <0>         0.0606
      3 O1         -1.3386   -0.4987    0.0122 O.3       1 <0>        -0.3451
      4 C3         -1.4971   -1.8376    0.0065 C.2       1 <0>         0.5323
      5 O2         -0.5234   -2.5647   -0.0067 O.2       1 <0>        -0.4909
      6 C4         -2.8469   -2.4176    0.0163 C.2       1 <0>        -0.1843
      7 C5         -3.1685   -3.7268    0.0182 C.2       1 <0>        -0.0194
      8 C6         -4.6324   -3.8626    0.0289 C.2       1 <0>         0.0932
      9 N1         -5.2055   -2.6993    0.0336 N.2       1 <0>        -0.3822
     10 C7         -4.1607   -1.6682    0.0328 C.3       1 <0>         0.0569
     11 H1         -4.2331   -1.0550    0.9311 H         1 <0>         0.1435
     12 C8         -4.2863   -0.7940   -1.2165 C.3       1 <0>        -0.1224
     13 C9         -5.3564   -5.1563    0.0331 C.2       1 <0>         0.4307
     14 O3         -4.7385   -6.1944    0.0275 O.2       1 <0>        -0.4015
     15 C10        -6.8632   -5.1764    0.0443 C.3       1 <0>         0.0505
     16 H2         -7.2416   -4.4540   -0.6789 H         1 <0>         0.1220
     17 C11        -7.3678   -4.8112    1.4418 C.3       1 <0>        -0.1824
     18 N2         -7.3377   -6.5203   -0.3119 N.3       1 <0>        -0.5239
     19 C12        -6.9675   -7.4996    0.7185 C.3       1 <0>        -0.0019
     20 C13        -8.7884   -6.5223   -0.5431 C.3       1 <0>         0.1326
     21 C14        -9.2001   -7.8435   -1.1398 C.2       1 <0>        -0.0051
     22 C15        -9.5792   -8.9342   -0.4498 C.2       1 <0>        -0.1988
     23 C16        -9.8755   -9.9378   -1.4005 C.2       1 <0>        -0.2144
     24 C17        -9.6597   -9.4004   -2.6146 C.2       1 <0>        -0.0088
     25 O4         -9.2563   -8.1299   -2.4507 O.3       1 <0>        -0.1670
     26 C18        -9.8446  -10.1030   -3.9349 C.3       1 <0>        -0.0754
     27 C19        -2.1848   -4.8685    0.0101 C.3       1 <0>        -0.1222
     28 H3          1.0039    1.9031    0.0027 H         1 <0>         0.0822
     29 H4         -0.5459    1.8868   -0.8726 H         1 <0>         0.0679
     30 H5         -0.5289    1.8773    0.9072 H         1 <0>         0.0677
     31 H6          0.5123   -0.3556   -0.8948 H         1 <0>         0.0706
     32 H7          0.5293   -0.3651    0.8851 H         1 <0>         0.0703
     33 H8         -4.2456   -1.4231   -2.1057 H         1 <0>         0.0617
     34 H9         -5.2362   -0.2600   -1.1923 H         1 <0>         0.0778
     35 H10        -3.4665   -0.0761   -1.2415 H         1 <0>         0.0827
     36 H11        -7.0158   -3.8141    1.7061 H         1 <0>         0.0777
     37 H12        -8.4577   -4.8258    1.4498 H         1 <0>         0.0743
     38 H13        -6.9894   -5.5337    2.1649 H         1 <0>         0.0674
     39 H14        -7.4143   -7.2121    1.6702 H         1 <0>         0.0322
     40 H15        -7.3308   -8.4858    0.4297 H         1 <0>         0.0750
     41 H16        -5.8826   -7.5275    0.8202 H         1 <0>         0.0949
     42 H17        -9.3074   -6.3737    0.4038 H         1 <0>         0.0728
     43 H18        -9.0479   -5.7168   -1.2301 H         1 <0>         0.0946
     44 H19        -9.6442   -9.0259    0.6244 H         1 <0>         0.1453
     45 H20       -10.2104  -10.9432   -1.1920 H         1 <0>         0.1472
     46 H21       -10.8658   -9.9540   -4.2859 H         1 <0>         0.0811
     47 H22        -9.1462   -9.6941   -4.6650 H         1 <0>         0.0766
     48 H23        -9.6557  -11.1691   -3.8088 H         1 <0>         0.0887
     49 H24        -1.9397   -5.1441    1.0358 H         1 <0>         0.0870
     50 H25        -2.6258   -5.7244   -0.5007 H         1 <0>         0.0899
     51 H26        -1.2774   -4.5625   -0.5106 H         1 <0>         0.0908
@<TRIPOS>BOND
     1    1    2 1
     2    1   28 1
     3    1   29 1
     4    1   30 1
     5    2    3 1
     6    2   31 1
     7    2   32 1
     8    3    4 1
     9    4    5 2
    10    4    6 1
    11    6   10 1
    12    6    7 2
    13    7    8 1
    14    7   27 1
    15    8    9 2
    16    8   13 1
    17    9   10 1
    18   10   11 1
    19   10   12 1
    20   12   33 1
    21   12   34 1
    22   12   35 1
    23   13   14 2
    24   13   15 1
    25   15   16 1
    26   15   17 1
    27   15   18 1
    28   17   36 1
    29   17   37 1
    30   17   38 1
    31   18   19 1
    32   18   20 1
    33   19   39 1
    34   19   40 1
    35   19   41 1
    36   20   21 1
    37   20   42 1
    38   20   43 1
    39   21   25 1
    40   21   22 2
    41   22   23 1
    42   22   44 1
    43   23   24 2
    44   23   45 1
    45   24   25 1
    46   24   26 1
    47   26   46 1
    48   26   47 1
    49   26   48 1
    50   27   49 1
    51   27   50 1
    52   27   51 1
@<TRIPOS>MOLECULE
ZINC67189577
   51    52     0     0     0
SMALL
USER_CHARGES

@<TRIPOS>ATOM
      1 C1          2.1063    1.4026   -1.5564 C.3       1 <0>        -0.0880
      2 C2          1.5487    0.0660   -1.1397 C.2       1 <0>         0.0290
      3 C3          1.2050   -0.9279   -1.9752 C.2       1 <0>        -0.1186
      4 C4          0.7161   -2.0279   -1.1318 C.2       1 <0>        -0.2010
      5 C5          0.8156   -1.5759    0.1741 C.2       1 <0>         0.0885
      6 N1          1.3186   -0.3282    0.1471 N.pl3     1 <0>        -0.4262
      7 C6          1.5792    0.4933    1.3318 C.3       1 <0>         0.0990
      8 C7          0.3318    1.3125    1.6689 C.3       1 <0>         0.0654
      9 H1         -0.5333    0.6576    1.7733 H         1 <0>         0.0771
     10 C8          0.5549    2.1207    2.9719 C.3       1 <0>        -0.1504
     11 C9         -0.4541    3.2845    2.7734 C.3       1 <0>        -0.1549
     12 C10        -0.4062    3.5027    1.2459 C.3       1 <0>         0.0484
     13 O1          0.0918    2.2971    0.6508 O.3       1 <0>        -0.3666
     14 C11         0.4321   -2.3488    1.4096 C.3       1 <0>        -0.0965
     15 C12         0.2401   -3.2912   -1.5654 C.2       1 <0>         0.1370
     16 C13        -0.6495   -3.3697   -2.6198 C.2       1 <0>        -0.1392
     17 C14        -0.9310   -4.6359   -3.2263 C.1       1 <0>         0.2601
     18 N2         -1.1544   -5.6405   -3.7075 N.1       1 <0>        -0.4158
     19 C15        -1.3059   -2.1551   -3.1180 C.2       1 <0>         0.5114
     20 O2         -1.1656   -1.1019   -2.5267 O.2       1 <0>        -0.4735
     21 O3         -2.0647   -2.2072   -4.2316 O.3       1 <0>        -0.3388
     22 C16        -2.6736   -0.9873   -4.6594 C.3       1 <0>         0.0919
     23 H2         -2.8729   -0.3572   -3.7926 H         1 <0>         0.0974
     24 C17        -1.7309   -0.2549   -5.6164 C.3       1 <0>        -0.1657
     25 C18        -3.9886   -1.2980   -5.3772 C.3       1 <0>         0.0631
     26 O4         -3.7163   -2.0255   -6.5766 O.3       1 <0>        -0.3795
     27 C19        -4.8835   -2.3676   -7.3267 C.3       1 <0>         0.0302
     28 H3          3.1937    1.3440   -1.6031 H         1 <0>         0.0632
     29 H4          1.7144    1.6698   -2.5377 H         1 <0>         0.0759
     30 H5          1.8142    2.1607   -0.8297 H         1 <0>         0.0772
     31 H6          1.2741   -0.9203   -3.0530 H         1 <0>         0.1356
     32 H7          1.8284   -0.1523    2.1740 H         1 <0>         0.1038
     33 H8          2.4127    1.1665    1.1310 H         1 <0>         0.0999
     34 H9          0.3022    1.5271    3.8505 H         1 <0>         0.0876
     35 H10         1.5774    2.4933    3.0328 H         1 <0>         0.0833
     36 H11        -1.4539    2.9896    3.0920 H         1 <0>         0.0783
     37 H12        -0.1247    4.1781    3.3035 H         1 <0>         0.0854
     38 H13        -1.4079    3.7122    0.8707 H         1 <0>         0.0698
     39 H14         0.2589    4.3339    1.0118 H         1 <0>         0.0714
     40 H15         1.2931   -2.9141    1.7664 H         1 <0>         0.0812
     41 H16         0.1058   -1.6558    2.1850 H         1 <0>         0.0683
     42 H17        -0.3800   -3.0356    1.1710 H         1 <0>         0.0850
     43 H18         0.5730   -4.1922   -1.0715 H         1 <0>         0.1445
     44 H19        -0.7941   -0.0336   -5.1051 H         1 <0>         0.0622
     45 H20        -1.5316   -0.8850   -6.4832 H         1 <0>         0.0745
     46 H21        -2.1954    0.6756   -5.9427 H         1 <0>         0.0708
     47 H22        -4.6255   -1.8966   -4.7259 H         1 <0>         0.0577
     48 H23        -4.4963   -0.3658   -5.6250 H         1 <0>         0.0704
     49 H24        -5.5389   -2.9883   -6.7158 H         1 <0>         0.0415
     50 H25        -5.4098   -1.4576   -7.6149 H         1 <0>         0.0413
     51 H26        -4.5922   -2.9177   -8.2214 H         1 <0>         0.0876
@<TRIPOS>BOND
     1    1    2 1
     2    1   28 1
     3    1   29 1
     4    1   30 1
     5    2    6 1
     6    2    3 2
     7    3    4 1
     8    3   31 1
     9    4    5 2
    10    4   15 1
    11    5    6 1
    12    5   14 1
    13    6    7 1
    14    7    8 1
    15    7   32 1
    16    7   33 1
    17    8    9 1
    18    8   13 1
    19    8   10 1
    20   10   11 1
    21   10   34 1
    22   10   35 1
    23   11   12 1
    24   11   36 1
    25   11   37 1
    26   12   13 1
    27   12   38 1
    28   12   39 1
    29   14   40 1
    30   14   41 1
    31   14   42 1
    32   15   16 2
    33   15   43 1
    34   16   17 1
    35   16   19 1
    36   17   18 3
    37   19   20 2
    38   19   21 1
    39   21   22 1
    40   22   23 1
    41   22   24 1
    42   22   25 1
    43   24   44 1
    44   24   45 1
    45   24   46 1
    46   25   26 1
    47   25   47 1
    48   25   48 1
    49   26   27 1
    50   27   49 1
    51   27   50 1
    52   27   51 1
@<TRIPOS>MOLECULE
ZINC02610525
   51    53     0     0     0
SMALL
USER_CHARGES
N-(3-benzylsulfanyl-5-methyl-1,2,4-triazol-4-yl)-1-(4-isobutoxyphenyl)-methanimine
@<TRIPOS>ATOM
      1 C1         -0.0127    1.0858    0.0080 C.3       1 <0>        -0.0674
      2 C2         -0.7181    1.5718    1.2479 C.2       1 <0>         0.1905
      3 N1         -0.1655    1.8310    2.4000 N.2       1 <0>        -0.2764
      4 N2         -1.0552    2.2256    3.2391 N.2       1 <0>        -0.2833
      5 C3         -2.2364    2.2406    2.6649 C.2       1 <0>         0.1542
      6 N3         -2.0578    1.8288    1.3718 N.pl3     1 <0>        -0.3336
      7 N4         -3.0405    1.6955    0.3822 N.2       1 <0>        -0.2718
      8 C4         -3.6705    0.5698    0.2408 C.2       1 <0>         0.2155
      9 C5         -4.7045    0.4296   -0.8003 C.ar      1 <0>        -0.1310
     10 C6         -5.0121    1.5094   -1.6325 C.ar      1 <0>        -0.0161
     11 C7         -5.9763    1.3724   -2.6072 C.ar      1 <0>        -0.2207
     12 C8         -6.6493    0.1664   -2.7567 C.ar      1 <0>         0.1701
     13 C9         -6.3502   -0.9082   -1.9287 C.ar      1 <0>        -0.1607
     14 C10        -5.3842   -0.7818   -0.9544 C.ar      1 <0>        -0.0282
     15 O1         -7.6030    0.0376   -3.7152 O.3       1 <0>        -0.3064
     16 C11        -7.8607    1.1816   -4.5318 C.3       1 <0>         0.0590
     17 C12        -8.9569    0.8480   -5.5457 C.3       1 <0>        -0.0949
     18 C13       -10.2685    0.5742   -4.8071 C.3       1 <0>        -0.1492
     19 C14        -9.1458    2.0291   -6.4998 C.3       1 <0>        -0.1481
     20 S1         -3.7606    2.7084    3.4149 S.3       1 <0>         0.0134
     21 C15        -3.1793    3.1175    5.0795 C.3       1 <0>        -0.0614
     22 C16        -4.3465    3.5574    5.9252 C.ar      1 <0>        -0.0846
     23 C17        -4.6984    4.8933    5.9762 C.ar      1 <0>        -0.0980
     24 C18        -5.7724    5.2961    6.7478 C.ar      1 <0>        -0.1194
     25 C19        -6.4875    4.3646    7.4769 C.ar      1 <0>        -0.1098
     26 C20        -6.1321    3.0296    7.4304 C.ar      1 <0>        -0.1197
     27 C21        -5.0617    2.6259    6.6543 C.ar      1 <0>        -0.0989
     28 H1          0.0021   -0.0041    0.0020 H         1 <0>         0.0859
     29 H2          1.0099    1.4631    0.0003 H         1 <0>         0.1005
     30 H3         -0.5399    1.4469   -0.8751 H         1 <0>         0.0811
     31 H4         -3.4372   -0.2643    0.8860 H         1 <0>         0.1289
     32 H5         -4.4925    2.4487   -1.5140 H         1 <0>         0.1395
     33 H6         -6.2118    2.2050   -3.2534 H         1 <0>         0.1363
     34 H7         -6.8760   -1.8439   -2.0485 H         1 <0>         0.1416
     35 H8         -5.1528   -1.6175   -0.3106 H         1 <0>         0.1404
     36 H9         -8.1869    2.0104   -3.9036 H         1 <0>         0.0673
     37 H10        -6.9501    1.4630   -5.0607 H         1 <0>         0.0667
     38 H11        -8.6689   -0.0361   -6.1145 H         1 <0>         0.0829
     39 H12       -11.0495    0.3365   -5.5294 H         1 <0>         0.0592
     40 H13       -10.1340   -0.2672   -4.1274 H         1 <0>         0.0624
     41 H14       -10.5566    1.4583   -4.2383 H         1 <0>         0.0550
     42 H15        -8.2113    2.2241   -7.0260 H         1 <0>         0.0588
     43 H16        -9.9267    1.7914   -7.2221 H         1 <0>         0.0671
     44 H17        -9.4338    2.9131   -5.9310 H         1 <0>         0.0591
     45 H18        -2.7159    2.2390    5.5286 H         1 <0>         0.1066
     46 H19        -2.4485    3.9240    5.0211 H         1 <0>         0.1075
     47 H20        -4.1369    5.6216    5.4100 H         1 <0>         0.1265
     48 H21        -6.0503    6.3391    6.7838 H         1 <0>         0.1265
     49 H22        -7.3243    4.6799    8.0827 H         1 <0>         0.1251
     50 H23        -6.6909    2.3018    8.0001 H         1 <0>         0.1263
     51 H24        -4.7840    1.5829    6.6180 H         1 <0>         0.1259
@<TRIPOS>BOND
     1    1    2 1
     2    1   28 1
     3    1   29 1
     4    1   30 1
     5    2    6 1
     6    2    3 2
     7    3    4 1
     8    4    5 2
     9    5    6 1
    10    5   20 1
    11    6    7 1
    12    7    8 2
    13    8    9 1
    14    8   31 1
    15    9   14 ar
    16    9   10 ar
    17   10   11 ar
    18   10   32 1
    19   11   12 ar
    20   11   33 1
    21   12   13 ar
    22   12   15 1
    23   13   14 ar
    24   13   34 1
    25   14   35 1
    26   15   16 1
    27   16   17 1
    28   16   36 1
    29   16   37 1
    30   17   18 1
    31   17   19 1
    32   17   38 1
    33   18   39 1
    34   18   40 1
    35   18   41 1
    36   19   42 1
    37   19   43 1
    38   19   44 1
    39   20   21 1
    40   21   22 1
    41   21   45 1
    42   21   46 1
    43   22   27 ar
    44   22   23 ar
    45   23   24 ar
    46   23   47 1
    47   24   25 ar
    48   24   48 1
    49   25   26 ar
    50   25   49 1
    51   26   27 ar
    52   26   50 1
    53   27   51 1
@<TRIPOS>MOLECULE
ZINC32721556
   46    48     0     0     0
SMALL
USER_CHARGES
3-[2-(4-chlorophenoxy)ethylsulfanyl]-4-(2-methoxyethyl)-5-phenyl-1,2,4-triazole
@<TRIPOS>ATOM
      1 C1          0.2950    1.4043   -3.4349 C.3       1 <0>         0.0283
      2 O1          0.5989    0.9064   -2.1304 O.3       1 <0>        -0.3827
      3 C2         -0.1942    1.4809   -1.0897 C.3       1 <0>         0.0401
      4 C3          0.2149    0.8776    0.2555 C.3       1 <0>         0.0932
      5 N1         -0.5982    1.4666    1.3223 N.pl3     1 <0>        -0.4542
      6 C4         -1.7707    0.9706    1.8440 C.2       1 <0>         0.2352
      7 N2         -2.1620    1.8076    2.7765 N.2       1 <0>        -0.2633
      8 N3         -1.3264    2.7793    2.8725 N.2       1 <0>        -0.2786
      9 C5         -0.3471    2.6192    2.0104 C.2       1 <0>         0.1574
     10 S1          1.0308    3.6934    1.7825 S.3       1 <0>         0.0300
     11 C6          0.6566    4.9530    3.0273 C.3       1 <0>        -0.1159
     12 C7          1.7492    6.0239    3.0136 C.3       1 <0>         0.0722
     13 O2          1.4537    7.0184    3.9964 O.3       1 <0>        -0.3027
     14 C8          2.3320    8.0490    4.1148 C.ar      1 <0>         0.1357
     15 C9          3.4578    8.0985    3.3058 C.ar      1 <0>        -0.1972
     16 C10         4.3468    9.1493    3.4244 C.ar      1 <0>        -0.0684
     17 C11         4.1203   10.1464    4.3567 C.ar      1 <0>        -0.0723
     18 C12         3.0008   10.0959    5.1681 C.ar      1 <0>        -0.0689
     19 C13         2.1067    9.0496    5.0489 C.ar      1 <0>        -0.1366
     20 Cl1         5.2421   11.4626    4.5080 Cl        1 <0>        -0.0680
     21 C14        -2.4596   -0.2711    1.4327 C.ar      1 <0>        -0.0235
     22 C15        -2.1791   -0.8510    0.1944 C.ar      1 <0>        -0.1189
     23 C16        -2.8219   -2.0123   -0.1814 C.ar      1 <0>        -0.1144
     24 C17        -3.7509   -2.5962    0.6615 C.ar      1 <0>        -0.1014
     25 C18        -4.0371   -2.0239    1.8882 C.ar      1 <0>        -0.1150
     26 C19        -3.3975   -0.8655    2.2783 C.ar      1 <0>        -0.0718
     27 H1          0.9453    0.9148   -4.1749 H         1 <0>         0.0964
     28 H2          0.4632    2.4911   -3.4609 H         1 <0>         0.0477
     29 H3         -0.7574    1.1903   -3.6730 H         1 <0>         0.0466
     30 H4         -0.0362    2.5693   -1.0667 H         1 <0>         0.0666
     31 H5         -1.2568    1.2686   -1.2788 H         1 <0>         0.0631
     32 H6          0.0569   -0.2108    0.2324 H         1 <0>         0.1207
     33 H7          1.2775    1.0899    0.4446 H         1 <0>         0.1141
     34 H8         -0.3144    5.4169    2.7992 H         1 <0>         0.1141
     35 H9          0.6146    4.4847    4.0217 H         1 <0>         0.1144
     36 H10         2.7202    5.5600    3.2417 H         1 <0>         0.0782
     37 H11         1.7912    6.4922    2.0191 H         1 <0>         0.0777
     38 H12         3.6370    7.3183    2.5809 H         1 <0>         0.1374
     39 H13         5.2212    9.1903    2.7919 H         1 <0>         0.1375
     40 H14         2.8255   10.8753    5.8950 H         1 <0>         0.1422
     41 H15         1.2328    9.0108    5.6822 H         1 <0>         0.1428
     42 H16        -1.4577   -0.3935   -0.4664 H         1 <0>         0.1307
     43 H17        -2.6028   -2.4643   -1.1375 H         1 <0>         0.1310
     44 H18        -4.2547   -3.5029    0.3606 H         1 <0>         0.1298
     45 H19        -4.7630   -2.4848    2.5416 H         1 <0>         0.1335
     46 H20        -3.6217   -0.4197    3.2362 H         1 <0>         0.1377
@<TRIPOS>BOND
     1    1    2 1
     2    1   27 1
     3    1   28 1
     4    1   29 1
     5    2    3 1
     6    3    4 1
     7    3   30 1
     8    3   31 1
     9    4    5 1
    10    4   32 1
    11    4   33 1
    12    5    9 1
    13    5    6 1
    14    6    7 2
    15    6   21 1
    16    7    8 1
    17    8    9 2
    18    9   10 1
    19   10   11 1
    20   11   12 1
    21   11   34 1
    22   11   35 1
    23   12   13 1
    24   12   36 1
    25   12   37 1
    26   13   14 1
    27   14   19 ar
    28   14   15 ar
    29   15   16 ar
    30   15   38 1
    31   16   17 ar
    32   16   39 1
    33   17   18 ar
    34   17   20 1
    35   18   19 ar
    36   18   40 1
    37   19   41 1
    38   21   26 ar
    39   21   22 ar
    40   22   23 ar
    41   22   42 1
    42   23   24 ar
    43   23   43 1
    44   24   25 ar
    45   24   44 1
    46   25   26 ar
    47   25   45 1
    48   26   46 1
@<TRIPOS>MOLECULE
ZINC35760126
   60    61     0     0     0
SMALL
USER_CHARGES

@<TRIPOS>ATOM
      1 C1          1.3497   -6.1638   -0.9414 C.3       1 <0>        -0.1518
      2 C2          1.0521   -5.1184    0.1355 C.3       1 <0>        -0.1442
      3 C3         -0.3189   -5.3993    0.7538 C.3       1 <0>         0.0848
      4 N1         -0.6039   -4.3984    1.7849 N.am      1 <0>        -0.6066
      5 C4         -1.1874   -3.1076    1.4114 C.3       1 <0>         0.1904
      6 C5         -2.6359   -3.0724    1.8256 C.2       1 <0>        -0.2542
      7 C6         -3.2236   -2.1434    2.7094 C.2       1 <0>         0.1744
      8 N2         -4.4984   -2.4386    2.8177 N.2       1 <0>        -0.3072
      9 O1         -4.7572   -3.5673    2.0029 O.3       1 <0>        -0.0968
     10 C7         -3.6059   -3.9254    1.4094 C.2       1 <0>         0.3327
     11 N3         -3.4384   -4.9799    0.5304 N.pl3     1 <0>        -0.6296
     12 C8         -2.9693   -6.2771    1.0236 C.3       1 <0>         0.1062
     13 C9         -3.7301   -4.7996   -0.8939 C.3       1 <0>         0.1619
     14 C10        -2.4657   -5.0708   -1.7117 C.3       1 <0>        -0.1690
     15 C11        -4.8300   -5.7755   -1.3167 C.3       1 <0>        -0.1675
     16 C12        -2.5241   -1.0284    3.3961 C.ar      1 <0>        -0.0447
     17 C13        -1.1956   -1.1734    3.7893 C.ar      1 <0>        -0.0924
     18 C14        -0.5498   -0.1334    4.4270 C.ar      1 <0>        -0.1265
     19 C15        -1.2194    1.0510    4.6757 C.ar      1 <0>        -0.1018
     20 C16        -2.5386    1.2003    4.2874 C.ar      1 <0>        -0.1281
     21 C17        -3.1922    0.1686    3.6443 C.ar      1 <0>        -0.0861
     22 C18        -0.3292   -4.6651    3.0772 C.2       1 <0>         0.5120
     23 O2         -0.6571   -3.8798    3.9414 O.2       1 <0>        -0.5184
     24 C19         0.3853   -5.9389    3.4483 C.3       1 <0>        -0.1354
     25 C20         0.5717   -5.9956    4.9659 C.3       1 <0>        -0.0796
     26 C21        -0.7965   -6.0865    5.6447 C.3       1 <0>        -0.1531
     27 C22         1.4052   -7.2254    5.3318 C.3       1 <0>        -0.1488
     28 H1          2.3265   -5.9637   -1.3819 H         1 <0>         0.0592
     29 H2          1.3500   -7.1573   -0.4930 H         1 <0>         0.0564
     30 H3          0.5848   -6.1151   -1.7163 H         1 <0>         0.0564
     31 H4          1.8171   -5.1671    0.9104 H         1 <0>         0.0649
     32 H5          1.0518   -4.1249   -0.3128 H         1 <0>         0.0662
     33 H6         -1.0839   -5.3506   -0.0211 H         1 <0>         0.1005
     34 H7         -0.3186   -6.3929    1.2022 H         1 <0>         0.0795
     35 H8         -0.6464   -2.3054    1.9133 H         1 <0>         0.0919
     36 H9         -1.1148   -2.9748    0.3319 H         1 <0>         0.0884
     37 H10        -3.8261   -6.9171    1.2344 H         1 <0>         0.0430
     38 H11        -2.3415   -6.7480    0.2672 H         1 <0>         0.0742
     39 H12        -2.3914   -6.1315    1.9362 H         1 <0>         0.0629
     40 H13        -4.0643   -3.7771   -1.0698 H         1 <0>         0.0819
     41 H14        -2.1316   -6.0933   -1.5358 H         1 <0>         0.0634
     42 H15        -2.6828   -4.9367   -2.7714 H         1 <0>         0.0724
     43 H16        -1.6822   -4.3755   -1.4105 H         1 <0>         0.0634
     44 H17        -5.7308   -5.5823   -0.7341 H         1 <0>         0.0599
     45 H18        -5.0470   -5.6414   -2.3764 H         1 <0>         0.0675
     46 H19        -4.4958   -6.7980   -1.1408 H         1 <0>         0.0600
     47 H20        -0.6719   -2.0979    3.5959 H         1 <0>         0.1667
     48 H21         0.4800   -0.2448    4.7326 H         1 <0>         0.1255
     49 H22        -0.7106    1.8622    5.1752 H         1 <0>         0.1244
     50 H23        -3.0569    2.1270    4.4843 H         1 <0>         0.1267
     51 H24        -4.2208    0.2877    3.3376 H         1 <0>         0.1247
     52 H25        -0.2055   -6.7951    3.1226 H         1 <0>         0.0896
     53 H26         1.3602   -5.9638    2.9614 H         1 <0>         0.0936
     54 H27         1.0854   -5.0952    5.3027 H         1 <0>         0.0780
     55 H28        -0.6637   -6.1268    6.7258 H         1 <0>         0.0525
     56 H29        -1.3903   -5.2104    5.3840 H         1 <0>         0.0731
     57 H30        -1.3101   -6.9869    5.3078 H         1 <0>         0.0453
     58 H31         2.3799   -7.1606    4.8482 H         1 <0>         0.0542
     59 H32         1.5380   -7.2657    6.4129 H         1 <0>         0.0585
     60 H33         0.8916   -8.1258    4.9949 H         1 <0>         0.0542
@<TRIPOS>BOND
     1    1    2 1
     2    1   28 1
     3    1   29 1
     4    1   30 1
     5    2    3 1
     6    2   31 1
     7    2   32 1
     8    3    4 1
     9    3   33 1
    10    3   34 1
    11    4    5 1
    12    4   22 am
    13    5    6 1
    14    5   35 1
    15    5   36 1
    16    6   10 2
    17    6    7 1
    18    7    8 2
    19    7   16 1
    20    8    9 1
    21    9   10 1
    22   10   11 1
    23   11   12 1
    24   11   13 1
    25   12   37 1
    26   12   38 1
    27   12   39 1
    28   13   14 1
    29   13   15 1
    30   13   40 1
    31   14   41 1
    32   14   42 1
    33   14   43 1
    34   15   44 1
    35   15   45 1
    36   15   46 1
    37   16   21 ar
    38   16   17 ar
    39   17   18 ar
    40   17   47 1
    41   18   19 ar
    42   18   48 1
    43   19   20 ar
    44   19   49 1
    45   20   21 ar
    46   20   50 1
    47   21   51 1
    48   22   23 2
    49   22   24 1
    50   24   25 1
    51   24   52 1
    52   24   53 1
    53   25   26 1
    54   25   27 1
    55   25   54 1
    56   26   55 1
    57   26   56 1
    58   26   57 1
    59   27   58 1
    60   27   59 1
    61   27   60 1
@<TRIPOS>MOLECULE
ZINC47132234
   56    59     0     0     0
SMALL
USER_CHARGES

@<TRIPOS>ATOM
      1 C1         -1.1867   -1.8493    1.4858 C.3       1 <0>        -0.1510
      2 C2          0.2042   -1.4886    0.9605 C.3       1 <0>        -0.1243
      3 C3          0.4798   -2.2653   -0.3286 C.3       1 <0>         0.0556
      4 O1          1.7789   -1.9284   -0.8193 O.3       1 <0>        -0.3107
      5 C4          2.1813   -2.5350   -1.9646 C.ar      1 <0>         0.1563
      6 C5          1.3373   -3.4336   -2.6065 C.ar      1 <0>        -0.2123
      7 C6          1.7419   -4.0512   -3.7689 C.ar      1 <0>        -0.0521
      8 C7          3.0027   -3.7730   -4.3032 C.ar      1 <0>        -0.1755
      9 C8          3.8481   -2.8687   -3.6551 C.ar      1 <0>        -0.0260
     10 C9          3.4342   -2.2516   -2.4958 C.ar      1 <0>        -0.1560
     11 C10         3.4405   -4.4331   -5.5487 C.2       1 <0>         0.5713
     12 O2          3.8596   -3.7665   -6.4752 O.2       1 <0>        -0.5142
     13 N1          3.3759   -5.7748   -5.6590 N.am      1 <0>        -0.6020
     14 C11         2.7686   -6.5693   -4.5884 C.3       1 <0>         0.1784
     15 C12         1.4155   -7.0613   -5.0336 C.2       1 <0>        -0.0424
     16 C13         1.1818   -8.1638   -5.7678 C.2       1 <0>        -0.1872
     17 C14        -0.2177   -8.2444   -5.9517 C.2       1 <0>        -0.2128
     18 C15        -0.7555   -7.1863   -5.3188 C.2       1 <0>        -0.0302
     19 O3          0.2380   -6.4763   -4.7596 O.3       1 <0>        -0.1747
     20 C16         3.9128   -6.4387   -6.8494 C.3       1 <0>         0.1934
     21 C17         5.3633   -6.7795   -6.6233 C.2       1 <0>        -0.0355
     22 C18         5.8293   -7.9285   -6.1018 C.2       1 <0>        -0.1897
     23 C19         7.2388   -7.8223   -6.0709 C.2       1 <0>        -0.2086
     24 C20         7.5498   -6.6147   -6.5754 C.2       1 <0>         0.0300
     25 O4          6.4101   -5.9898   -6.9137 O.3       1 <0>        -0.1606
     26 C21         8.9413   -6.0595   -6.7386 C.3       1 <0>        -0.0856
     27 H1          9.7344   -6.8005   -6.8380 H         1 <0>         0.1347
     28 C22         9.0933   -4.7527   -7.5198 C.3       1 <0>        -0.1641
     29 C23         9.2752   -4.7619   -5.9999 C.3       1 <0>        -0.1367
     30 H2          8.4885   -4.3098   -5.3959 H         1 <0>         0.1060
     31 C24        10.6972   -4.6036   -5.4577 C.3       1 <0>        -0.1241
     32 H3         -1.9361   -1.5898    0.7381 H         1 <0>         0.0582
     33 H4         -1.2320   -2.9192    1.6895 H         1 <0>         0.0582
     34 H5         -1.3830   -1.2960    2.4042 H         1 <0>         0.0663
     35 H6          0.2496   -0.4188    0.7569 H         1 <0>         0.0748
     36 H7          0.9536   -1.7482    1.7083 H         1 <0>         0.0747
     37 H8          0.4345   -3.3351   -0.1250 H         1 <0>         0.0652
     38 H9         -0.2696   -2.0057   -1.0764 H         1 <0>         0.0651
     39 H10         0.3629   -3.6481   -2.1929 H         1 <0>         0.1350
     40 H11         1.0857   -4.7498   -4.2667 H         1 <0>         0.1412
     41 H12         4.8233   -2.6511   -4.0650 H         1 <0>         0.1366
     42 H13         4.0853   -1.5494   -1.9965 H         1 <0>         0.1396
     43 H14         3.4085   -7.4220   -4.3610 H         1 <0>         0.1106
     44 H15         2.6556   -5.9520   -3.6971 H         1 <0>         0.1118
     45 H16         1.9214   -8.8546   -6.1450 H         1 <0>         0.1498
     46 H17        -0.7523   -9.0087   -6.4961 H         1 <0>         0.1509
     47 H18        -1.8080   -6.9500   -5.2659 H         1 <0>         0.2047
     48 H19         3.3504   -7.3526   -7.0406 H         1 <0>         0.1129
     49 H20         3.8257   -5.7722   -7.7075 H         1 <0>         0.1053
     50 H21         5.2399   -8.7703   -5.7698 H         1 <0>         0.1482
     51 H22         7.9327   -8.5675   -5.7110 H         1 <0>         0.1484
     52 H23         9.9868   -4.6339   -8.1328 H         1 <0>         0.1042
     53 H24         8.1870   -4.2946   -7.9157 H         1 <0>         0.1015
     54 H25        11.4084   -4.6570   -6.2820 H         1 <0>         0.0596
     55 H26        10.7906   -3.6388   -4.9592 H         1 <0>         0.0651
     56 H27        10.9056   -5.4022   -4.7458 H         1 <0>         0.0626
@<TRIPOS>BOND
     1    1    2 1
     2    1   32 1
     3    1   33 1
     4    1   34 1
     5    2    3 1
     6    2   35 1
     7    2   36 1
     8    3    4 1
     9    3   37 1
    10    3   38 1
    11    4    5 1
    12    5   10 ar
    13    5    6 ar
    14    6    7 ar
    15    6   39 1
    16    7    8 ar
    17    7   40 1
    18    8    9 ar
    19    8   11 1
    20    9   10 ar
    21    9   41 1
    22   10   42 1
    23   11   12 2
    24   11   13 am
    25   13   14 1
    26   13   20 1
    27   14   15 1
    28   14   43 1
    29   14   44 1
    30   15   19 1
    31   15   16 2
    32   16   17 1
    33   16   45 1
    34   17   18 2
    35   17   46 1
    36   18   19 1
    37   18   47 1
    38   20   21 1
    39   20   48 1
    40   20   49 1
    41   21   25 1
    42   21   22 2
    43   22   23 1
    44   22   50 1
    45   23   24 2
    46   23   51 1
    47   24   25 1
    48   24   26 1
    49   26   27 1
    50   26   29 1
    51   26   28 1
    52   28   29 1
    53   28   52 1
    54   28   53 1
    55   29   30 1
    56   29   31 1
    57   31   54 1
    58   31   55 1
    59   31   56 1
@<TRIPOS>MOLECULE
ZINC60383993
   57    59     0     0     0
SMALL
USER_CHARGES

@<TRIPOS>ATOM
      1 C1         -0.0187    1.5258    0.0104 C.3       1 <0>        -0.1550
      2 C2          0.0021   -0.0041    0.0020 C.3       1 <0>        -0.0891
      3 H1          0.4324   -0.3564   -0.9354 H         1 <0>         0.0692
      4 C3         -1.4266   -0.5342    0.1385 C.3       1 <0>        -0.1156
      5 C4         -2.0306   -0.0396    1.4544 C.3       1 <0>        -0.1191
      6 C5         -1.1851   -0.5447    2.6253 C.3       1 <0>        -0.0760
      7 H2         -1.1703   -1.6345    2.6193 H         1 <0>         0.0896
      8 C6          0.2436   -0.0145    2.4888 C.3       1 <0>         0.0929
      9 H3          0.8459   -0.3743    3.3230 H         1 <0>         0.0898
     10 C7          0.8475   -0.5091    1.1729 C.3       1 <0>        -0.1346
     11 O1          0.2242    1.4144    2.4966 O.3       1 <0>        -0.3205
     12 C8          1.3045    2.0357    2.9951 C.2       1 <0>         0.4807
     13 O2          2.2358    1.3880    3.4110 O.2       1 <0>        -0.4904
     14 C9          1.3559    3.5413    3.0361 C.3       1 <0>        -0.1223
     15 S1          2.9323    4.0731    3.7591 S.3       1 <0>         0.0752
     16 C10         2.8393    5.8325    3.7373 C.2       1 <0>         0.1401
     17 N1          1.8365    6.5558    3.2960 N.2       1 <0>        -0.2902
     18 N2          2.1065    7.8051    3.4312 N.2       1 <0>        -0.2814
     19 C11         3.2872    7.9526    3.9620 C.2       1 <0>         0.2266
     20 N3          3.7941    6.7015    4.1816 N.pl3     1 <0>        -0.4517
     21 C12         5.0933    6.3639    4.7684 C.3       1 <0>         0.1334
     22 C13         6.1270    6.2639    3.6764 C.2       1 <0>        -0.1873
     23 C14         7.2213    6.9808    3.7427 C.2       1 <0>        -0.1491
     24 C15         3.9659    9.2598    4.2810 C.3       1 <0>        -0.0925
     25 C16         3.1358   10.5380    4.1470 C.3       1 <0>        -0.1466
     26 C17         4.2257   10.2225    3.1206 C.3       1 <0>        -0.1534
     27 C18        -1.7891   -0.0500    3.9411 C.3       1 <0>        -0.0939
     28 C19        -3.2178   -0.5802    4.0777 C.3       1 <0>        -0.1490
     29 C20        -0.9436   -0.5551    5.1121 C.3       1 <0>        -0.1536
     30 H4          0.9989    1.9024    0.1142 H         1 <0>         0.0439
     31 H5         -0.4468    1.8885   -0.9240 H         1 <0>         0.0486
     32 H6         -0.6229    1.8763    0.8471 H         1 <0>         0.0844
     33 H7         -2.0289   -0.1745   -0.6956 H         1 <0>         0.0649
     34 H8         -1.4118   -1.6241    0.1325 H         1 <0>         0.0613
     35 H9         -2.0454    1.0503    1.4604 H         1 <0>         0.0756
     36 H10        -3.0484   -0.4173    1.5517 H         1 <0>         0.0683
     37 H11         0.8623   -1.5990    1.1669 H         1 <0>         0.0806
     38 H12         1.8654   -0.1314    1.0757 H         1 <0>         0.0690
     39 H13         1.2693    3.9355    2.0235 H         1 <0>         0.1371
     40 H14         0.5325    3.9166    3.6438 H         1 <0>         0.1376
     41 H15         5.3855    7.1405    5.4753 H         1 <0>         0.1050
     42 H16         5.0200    5.4085    5.2880 H         1 <0>         0.1079
     43 H17         5.9655    5.6011    2.8391 H         1 <0>         0.1200
     44 H18         7.3828    7.6436    4.5799 H         1 <0>         0.1026
     45 H19         7.9621    6.9091    2.9600 H         1 <0>         0.1097
     46 H20         4.7072    9.2221    5.0793 H         1 <0>         0.1236
     47 H21         2.0987   10.4334    3.8281 H         1 <0>         0.1107
     48 H22         3.3307   11.3415    4.8573 H         1 <0>         0.1064
     49 H23         5.1376   10.8185    3.1556 H         1 <0>         0.1062
     50 H24         3.9057    9.9104    2.1265 H         1 <0>         0.1003
     51 H25        -1.8039    1.0399    3.9471 H         1 <0>         0.0757
     52 H26        -3.2030   -1.6701    4.0717 H         1 <0>         0.0543
     53 H27        -3.6481   -0.2278    5.0151 H         1 <0>         0.0549
     54 H28        -3.8201   -0.2204    3.2435 H         1 <0>         0.0594
     55 H29         0.0742   -0.1773    5.0148 H         1 <0>         0.0529
     56 H30        -1.3739   -0.2027    6.0495 H         1 <0>         0.0569
     57 H31        -0.9289   -1.6449    5.1061 H         1 <0>         0.0561
@<TRIPOS>BOND
     1    1    2 1
     2    1   30 1
     3    1   31 1
     4    1   32 1
     5    2    3 1
     6    2   10 1
     7    2    4 1
     8    4    5 1
     9    4   33 1
    10    4   34 1
    11    5    6 1
    12    5   35 1
    13    5   36 1
    14    6    7 1
    15    6    8 1
    16    6   27 1
    17    8    9 1
    18    8   10 1
    19    8   11 1
    20   10   37 1
    21   10   38 1
    22   11   12 1
    23   12   13 2
    24   12   14 1
    25   14   15 1
    26   14   39 1
    27   14   40 1
    28   15   16 1
    29   16   20 1
    30   16   17 2
    31   17   18 1
    32   18   19 2
    33   19   20 1
    34   19   24 1
    35   20   21 1
    36   21   22 1
    37   21   41 1
    38   21   42 1
    39   22   23 2
    40   22   43 1
    41   23   44 1
    42   23   45 1
    43   24   26 1
    44   24   25 1
    45   24   46 1
    46   25   26 1
    47   25   47 1
    48   25   48 1
    49   26   49 1
    50   26   50 1
    51   27   28 1
    52   27   29 1
    53   27   51 1
    54   28   52 1
    55   28   53 1
    56   28   54 1
    57   29   55 1
    58   29   56 1
    59   29   57 1
@<TRIPOS>MOLECULE
ZINC02878272
   57    59     0     0     0
SMALL
USER_CHARGES
3-methyl-5-[[3-[3-(4-sec-butylphenoxy)propoxy]phenyl]methylene]-2-thioxo-thiazolidin-4-one
@<TRIPOS>ATOM
      1 C1         -1.3157    2.4282   -1.2701 C.3       1 <0>        -0.1556
      2 C2         -1.8597    2.7874    0.1141 C.3       1 <0>        -0.1162
      3 C3         -0.8176    2.4374    1.1782 C.3       1 <0>        -0.0495
      4 H1         -0.5365    1.3888    1.0804 H         1 <0>         0.0777
      5 C4          0.4199    3.3170    0.9889 C.3       1 <0>        -0.1466
      6 C5         -1.3987    2.6760    2.5480 C.ar      1 <0>        -0.1118
      7 C6         -1.8240    3.9419    2.9064 C.ar      1 <0>        -0.0742
      8 C7         -2.3623    4.1620    4.1595 C.ar      1 <0>        -0.2061
      9 C8         -2.4655    3.1140    5.0627 C.ar      1 <0>         0.1244
     10 C9         -2.0328    1.8460    4.7027 C.ar      1 <0>        -0.1477
     11 C10        -1.5004    1.6299    3.4464 C.ar      1 <0>        -0.0774
     12 O1         -2.9899    3.3291    6.2978 O.3       1 <0>        -0.3127
     13 C11        -3.4147    4.6597    6.5995 C.3       1 <0>         0.0649
     14 C12        -3.9726    4.7065    8.0234 C.3       1 <0>        -0.1203
     15 C13        -4.4275    6.1311    8.3465 C.3       1 <0>         0.0642
     16 O2         -4.9485    6.1748    9.6764 O.3       1 <0>        -0.3103
     17 C14        -5.3993    7.3765   10.1233 C.ar      1 <0>         0.1206
     18 C15        -5.3350    8.4922    9.2982 C.ar      1 <0>        -0.1795
     19 C16        -5.7961    9.7176    9.7441 C.ar      1 <0>        -0.0861
     20 C17        -6.3140    9.8438   11.0160 C.ar      1 <0>        -0.0800
     21 C18        -6.3786    8.7276   11.8574 C.ar      1 <0>        -0.0659
     22 C19        -5.9164    7.4886   11.4017 C.ar      1 <0>        -0.1118
     23 C20        -6.9303    8.8565   13.2140 C.2       1 <0>         0.0995
     24 C21        -6.6543    9.9572   13.9565 C.2       1 <0>        -0.2454
     25 C22        -5.7124   11.0645   13.6865 C.2       1 <0>         0.5360
     26 O3         -5.0322   11.0942   12.6780 O.2       1 <0>        -0.4413
     27 N1         -5.6503   12.0231   14.5954 N.am      1 <0>        -0.5246
     28 C23        -6.4002   11.9822   15.7154 C.2       1 <0>         0.2780
     29 S1         -6.4539   13.1122   17.0003 S.2       1 <0>        -0.3285
     30 S2         -7.3237   10.4647   15.5344 S.3       1 <0>         0.0756
     31 C24        -4.7401   13.1515   14.3844 C.3       1 <0>         0.0480
     32 H2         -1.1003    1.3605   -1.3099 H         1 <0>         0.0544
     33 H3         -0.4012    2.9907   -1.4583 H         1 <0>         0.0573
     34 H4         -2.0582    2.6776   -2.0282 H         1 <0>         0.0544
     35 H5         -2.0752    3.8552    0.1539 H         1 <0>         0.0621
     36 H6         -2.7742    2.2250    0.3023 H         1 <0>         0.0627
     37 H7          1.1623    3.0676    1.7470 H         1 <0>         0.0554
     38 H8          0.8402    3.1444   -0.0019 H         1 <0>         0.0610
     39 H9          0.1388    4.3656    1.0867 H         1 <0>         0.0552
     40 H10        -1.7394    4.7583    2.2045 H         1 <0>         0.1237
     41 H11        -2.6984    5.1501    4.4374 H         1 <0>         0.1260
     42 H12        -2.1117    1.0287    5.4042 H         1 <0>         0.1309
     43 H13        -1.1631    0.6430    3.1658 H         1 <0>         0.1290
     44 H14        -2.5661    5.3391    6.5193 H         1 <0>         0.0660
     45 H15        -4.1900    4.9621    5.8955 H         1 <0>         0.0662
     46 H16        -4.8212    4.0271    8.1036 H         1 <0>         0.0883
     47 H17        -3.1974    4.4041    8.7275 H         1 <0>         0.0879
     48 H18        -3.5789    6.8105    8.2662 H         1 <0>         0.0673
     49 H19        -5.2027    6.4334    7.6424 H         1 <0>         0.0678
     50 H20        -4.9268    8.4015    8.3024 H         1 <0>         0.1314
     51 H21        -5.7466   10.5796    9.0953 H         1 <0>         0.1307
     52 H22        -6.6691   10.8031   11.3624 H         1 <0>         0.1238
     53 H23        -5.9627    6.6227   12.0455 H         1 <0>         0.1397
     54 H24        -7.5552    8.0745   13.6194 H         1 <0>         0.1641
     55 H25        -4.8123   13.8390   15.2272 H         1 <0>         0.1169
     56 H26        -3.7175   12.7831   14.3026 H         1 <0>         0.0899
     57 H27        -5.0133   13.6719   13.4665 H         1 <0>         0.0901
@<TRIPOS>BOND
     1    1    2 1
     2    1   32 1
     3    1   33 1
     4    1   34 1
     5    2    3 1
     6    2   35 1
     7    2   36 1
     8    3    4 1
     9    3    5 1
    10    3    6 1
    11    5   37 1
    12    5   38 1
    13    5   39 1
    14    6   11 ar
    15    6    7 ar
    16    7    8 ar
    17    7   40 1
    18    8    9 ar
    19    8   41 1
    20    9   10 ar
    21    9   12 1
    22   10   11 ar
    23   10   42 1
    24   11   43 1
    25   12   13 1
    26   13   14 1
    27   13   44 1
    28   13   45 1
    29   14   15 1
    30   14   46 1
    31   14   47 1
    32   15   16 1
    33   15   48 1
    34   15   49 1
    35   16   17 1
    36   17   22 ar
    37   17   18 ar
    38   18   19 ar
    39   18   50 1
    40   19   20 ar
    41   19   51 1
    42   20   21 ar
    43   20   52 1
    44   21   22 ar
    45   21   23 1
    46   22   53 1
    47   23   24 2
    48   23   54 1
    49   24   30 1
    50   24   25 1
    51   25   26 2
    52   25   27 am
    53   27   28 1
    54   27   31 1
    55   28   29 2
    56   28   30 1
    57   31   55 1
    58   31   56 1
    59   31   57 1
@<TRIPOS>MOLECULE
ZINC10611226
   55    58     0     0     0
SMALL
USER_CHARGES
N-benzyl-2-benzylsulfanyl-N-(6-ethoxybenzothiazol-2-yl)-acetamide
@<TRIPOS>ATOM
      1 C1         -3.7826   -0.2006   -1.4967 C.3       1 <0>        -0.1538
      2 C2         -2.5219    0.6647   -1.4455 C.3       1 <0>         0.0527
      3 O1         -1.3965   -0.1522   -1.1166 O.3       1 <0>        -0.3083
      4 C3         -0.1887    0.4666   -1.0301 C.ar      1 <0>         0.1482
      5 C4         -0.0811    1.8357   -1.2564 C.ar      1 <0>        -0.1893
      6 C5          1.1245    2.4810   -1.1744 C.ar      1 <0>        -0.0254
      7 C6          2.3055    1.7717   -0.8553 C.ar      1 <0>         0.0645
      8 C7          2.1606    0.3837   -0.6317 C.ar      1 <0>        -0.1411
      9 C8          0.9505   -0.2589   -0.7148 C.ar      1 <0>        -0.0977
     10 S1          3.8264   -0.1171   -0.2695 S.3       1 <0>         0.1030
     11 C9          4.5855    1.4928   -0.4319 C.2       1 <0>         0.3542
     12 N1          3.5621    2.2555   -0.7356 N.2       1 <0>        -0.5299
     13 N2          5.9168    1.8456   -0.2770 N.am      1 <0>        -0.4975
     14 C10         6.3310    3.2393   -0.4574 C.3       1 <0>         0.1478
     15 C11         6.5671    3.5077   -1.9214 C.ar      1 <0>        -0.1221
     16 C12         7.8317    3.3517   -2.4575 C.ar      1 <0>        -0.1066
     17 C13         8.0472    3.5927   -3.8015 C.ar      1 <0>        -0.1215
     18 C14         7.0004    4.0004   -4.6071 C.ar      1 <0>        -0.1069
     19 C15         5.7371    4.1619   -4.0698 C.ar      1 <0>        -0.1217
     20 C16         5.5204    3.9153   -2.7270 C.ar      1 <0>        -0.0853
     21 C17         6.8304    0.9067    0.0395 C.2       1 <0>         0.5363
     22 O2          6.5043   -0.2596    0.1028 O.2       1 <0>        -0.4676
     23 C18         8.2572    1.3062    0.3149 C.3       1 <0>        -0.1354
     24 S2          9.2664   -0.1821    0.5537 S.3       1 <0>        -0.1597
     25 C19        10.9319    0.4633    0.8706 C.3       1 <0>        -0.0635
     26 C20        11.8825   -0.6854    1.0893 C.ar      1 <0>        -0.0776
     27 C21        12.0882   -1.1793    2.3639 C.ar      1 <0>        -0.0992
     28 C22        12.9566   -2.2361    2.5638 C.ar      1 <0>        -0.1198
     29 C23        13.6269   -2.7924    1.4905 C.ar      1 <0>        -0.1116
     30 C24        13.4255   -2.2948    0.2167 C.ar      1 <0>        -0.1200
     31 C25        12.5532   -1.2414    0.0160 C.ar      1 <0>        -0.0994
     32 H1         -3.6616   -0.9745   -2.2547 H         1 <0>         0.0677
     33 H2         -3.9434   -0.6663   -0.5244 H         1 <0>         0.0677
     34 H3         -4.6411    0.4225   -1.7475 H         1 <0>         0.0805
     35 H4         -2.6430    1.4386   -0.6875 H         1 <0>         0.0650
     36 H5         -2.3611    1.1305   -2.4178 H         1 <0>         0.0649
     37 H6         -0.9667    2.4009   -1.5064 H         1 <0>         0.1383
     38 H7          1.1737    3.5445   -1.3562 H         1 <0>         0.1355
     39 H8          0.8859   -1.3220   -0.5356 H         1 <0>         0.1408
     40 H9          5.5480    3.9017   -0.0883 H         1 <0>         0.1101
     41 H10         7.2513    3.4196    0.0981 H         1 <0>         0.1047
     42 H11         8.6505    3.0375   -1.8272 H         1 <0>         0.1189
     43 H12         9.0342    3.4662   -4.2214 H         1 <0>         0.1253
     44 H13         7.1696    4.1924   -5.6564 H         1 <0>         0.1243
     45 H14         4.9192    4.4804   -4.6992 H         1 <0>         0.1242
     46 H15         4.5333    4.0415   -2.3072 H         1 <0>         0.1339
     47 H16         8.6444    1.8761   -0.5298 H         1 <0>         0.1187
     48 H17         8.2955    1.9195    1.2151 H         1 <0>         0.1235
     49 H18        11.2629    1.0509    0.0143 H         1 <0>         0.0926
     50 H19        10.9140    1.0943    1.7592 H         1 <0>         0.0933
     51 H20        11.5676   -0.7420    3.2030 H         1 <0>         0.1248
     52 H21        13.1141   -2.6247    3.5591 H         1 <0>         0.1254
     53 H22        14.3082   -3.6157    1.6472 H         1 <0>         0.1242
     54 H23        13.9495   -2.7292   -0.6219 H         1 <0>         0.1252
     55 H24        12.3959   -0.8526   -0.9792 H         1 <0>         0.1245
@<TRIPOS>BOND
     1    1    2 1
     2    1   32 1
     3    1   33 1
     4    1   34 1
     5    2    3 1
     6    2   35 1
     7    2   36 1
     8    3    4 1
     9    4    9 ar
    10    4    5 ar
    11    5    6 ar
    12    5   37 1
    13    6    7 ar
    14    6   38 1
    15    7   12 1
    16    7    8 ar
    17    8    9 ar
    18    8   10 1
    19    9   39 1
    20   10   11 1
    21   11   12 2
    22   11   13 1
    23   13   14 1
    24   13   21 am
    25   14   15 1
    26   14   40 1
    27   14   41 1
    28   15   20 ar
    29   15   16 ar
    30   16   17 ar
    31   16   42 1
    32   17   18 ar
    33   17   43 1
    34   18   19 ar
    35   18   44 1
    36   19   20 ar
    37   19   45 1
    38   20   46 1
    39   21   22 2
    40   21   23 1
    41   23   24 1
    42   23   47 1
    43   23   48 1
    44   24   25 1
    45   25   26 1
    46   25   49 1
    47   25   50 1
    48   26   31 ar
    49   26   27 ar
    50   27   28 ar
    51   27   51 1
    52   28   29 ar
    53   28   52 1
    54   29   30 ar
    55   29   53 1
    56   30   31 ar
    57   30   54 1
    58   31   55 1
@<TRIPOS>MOLECULE
ZINC23274328
   57    59     0     0     0
SMALL
USER_CHARGES
(2S)-N-[(3-fluorophenyl)methyl]-N-methyl-2-[[5-(m-tolyl)-4-propyl-1,2,4-triazol-3-yl]sulfanyl]propanamide
@<TRIPOS>ATOM
      1 C1          6.2428   -1.8273    0.4044 C.3       1 <0>        -0.1524
      2 C2          5.8340   -0.4041    0.0193 C.3       1 <0>        -0.1477
      3 C3          5.4973    0.3895    1.2833 C.3       1 <0>         0.0889
      4 N1          5.1059    1.7523    0.9145 N.pl3     1 <0>        -0.4534
      5 C4          5.9172    2.8616    0.8504 C.2       1 <0>         0.2279
      6 N2          5.1625    3.8701    0.4808 N.2       1 <0>        -0.2675
      7 N3          3.9530    3.4721    0.3067 N.2       1 <0>        -0.2868
      8 C5          3.8597    2.1864    0.5632 C.2       1 <0>         0.1458
      9 S1          2.4000    1.2043    0.4648 S.3       1 <0>         0.0965
     10 C6          1.2071    2.4648   -0.0489 C.3       1 <0>        -0.1177
     11 H1          1.0874    3.3700    0.5645 H         1 <0>         0.1277
     12 C7          1.5746    2.9767   -1.4432 C.3       1 <0>        -0.1512
     13 C8         -0.1749    1.8647   -0.0822 C.2       1 <0>         0.5360
     14 O1         -0.3121    0.6616   -0.1495 O.2       1 <0>        -0.5204
     15 N4         -1.2583    2.6654   -0.0428 N.am      1 <0>        -0.6039
     16 C9         -1.0926    4.1187    0.0386 C.3       1 <0>         0.0643
     17 C10        -2.6018    2.0823   -0.0812 C.3       1 <0>         0.1531
     18 C11        -3.0689    1.8038    1.3242 C.ar      1 <0>        -0.0836
     19 C12        -2.8104    0.5773    1.9080 C.ar      1 <0>        -0.1055
     20 C13        -3.2341    0.3221    3.1988 C.ar      1 <0>        -0.0918
     21 C14        -3.9258    1.2891    3.9036 C.ar      1 <0>        -0.1484
     22 C15        -4.1898    2.5156    3.3182 C.ar      1 <0>         0.0948
     23 C16        -3.7602    2.7720    2.0269 C.ar      1 <0>        -0.1403
     24 F1         -4.8662    3.4614    4.0060 F         1 <0>        -0.1391
     25 C17         7.3656    2.9090    1.1430 C.ar      1 <0>        -0.0143
     26 C18         8.1205    1.7348    1.1382 C.ar      1 <0>        -0.1265
     27 C19         9.4716    1.7861    1.4116 C.ar      1 <0>        -0.1108
     28 C20        10.0788    2.9980    1.6897 C.ar      1 <0>        -0.1057
     29 C21         9.3365    4.1653    1.6960 C.ar      1 <0>        -0.0805
     30 C22         7.9851    4.1286    1.4195 C.ar      1 <0>        -0.0753
     31 C23        10.0063    5.4807    1.9995 C.3       1 <0>        -0.1199
     32 H2          6.4849   -2.3978   -0.5044 H         1 <0>         0.0687
     33 H3          5.4123   -2.3167    0.9342 H         1 <0>         0.0636
     34 H4          7.1252   -1.7906    1.0602 H         1 <0>         0.0605
     35 H5          6.6645    0.0853   -0.5105 H         1 <0>         0.0757
     36 H6          4.9516   -0.4408   -0.6365 H         1 <0>         0.0804
     37 H7          4.6667   -0.0999    1.8131 H         1 <0>         0.1032
     38 H8          6.3796    0.4262    1.9391 H         1 <0>         0.1104
     39 H9          0.8496    3.7428   -1.7554 H         1 <0>         0.0736
     40 H10         1.5551    2.1406   -2.1577 H         1 <0>         0.0696
     41 H11         2.5833    3.4147   -1.4189 H         1 <0>         0.0931
     42 H12        -2.0816    4.5998    0.0607 H         1 <0>         0.0855
     43 H13        -0.5318    4.4735   -0.8387 H         1 <0>         0.0735
     44 H14        -0.5401    4.3740    0.9549 H         1 <0>         0.0678
     45 H15        -3.2939    2.7875   -0.5646 H         1 <0>         0.0952
     46 H16        -2.5775    1.1426   -0.6525 H         1 <0>         0.1022
     47 H17        -2.2736   -0.1804    1.3566 H         1 <0>         0.1362
     48 H18        -3.0281   -0.6348    3.6553 H         1 <0>         0.1345
     49 H19        -4.2606    1.0879    4.9105 H         1 <0>         0.1359
     50 H20        -3.9653    3.7286    1.5693 H         1 <0>         0.1340
     51 H21         7.6478    0.7883    0.9213 H         1 <0>         0.1325
     52 H22        10.0568    0.8784    1.4082 H         1 <0>         0.1302
     53 H23        11.1371    3.0328    1.9024 H         1 <0>         0.1281
     54 H24         7.4075    5.0411    1.4207 H         1 <0>         0.1362
     55 H25         9.2617    6.2893    1.9585 H         1 <0>         0.0696
     56 H26        10.7950    5.6705    1.2566 H         1 <0>         0.0740
     57 H27        10.4510    5.4423    3.0049 H         1 <0>         0.0734
@<TRIPOS>BOND
     1    1    2 1
     2    1   32 1
     3    1   33 1
     4    1   34 1
     5    2    3 1
     6    2   35 1
     7    2   36 1
     8    3    4 1
     9    3   37 1
    10    3   38 1
    11    4    8 1
    12    4    5 1
    13    5    6 2
    14    5   25 1
    15    6    7 1
    16    7    8 2
    17    8    9 1
    18    9   10 1
    19   10   11 1
    20   10   12 1
    21   10   13 1
    22   12   39 1
    23   12   40 1
    24   12   41 1
    25   13   14 2
    26   13   15 am
    27   15   16 1
    28   15   17 1
    29   16   42 1
    30   16   43 1
    31   16   44 1
    32   17   18 1
    33   17   45 1
    34   17   46 1
    35   18   23 ar
    36   18   19 ar
    37   19   20 ar
    38   19   47 1
    39   20   21 ar
    40   20   48 1
    41   21   22 ar
    42   21   49 1
    43   22   23 ar
    44   22   24 1
    45   23   50 1
    46   25   30 ar
    47   25   26 ar
    48   26   27 ar
    49   26   51 1
    50   27   28 ar
    51   27   52 1
    52   28   29 ar
    53   28   53 1
    54   29   30 ar
    55   29   31 1
    56   30   54 1
    57   31   55 1
    58   31   56 1
    59   31   57 1
@<TRIPOS>MOLECULE
ZINC34782401
   61    63     0     0     0
SMALL
USER_CHARGES

@<TRIPOS>ATOM
      1 C1          4.7797   -3.0924   -0.3246 C.3       1 <0>        -0.1549
      2 C2          4.3429   -2.2430   -1.5199 C.3       1 <0>        -0.1367
      3 C3          3.1175   -1.4120   -1.1344 C.3       1 <0>         0.1324
      4 H1          2.3636   -2.0613   -0.6892 H         1 <0>         0.0983
      5 C4          2.5411   -0.7433   -2.3840 C.3       1 <0>        -0.1727
      6 N1          3.5093   -0.3839   -0.1670 N.am      1 <0>        -0.5802
      7 C5          4.3034    0.7675   -0.6030 C.3       1 <0>         0.0968
      8 C6          3.3844    1.9152   -0.9336 C.2       1 <0>         0.5087
      9 O1          2.1832    1.7764   -0.8405 O.2       1 <0>        -0.5152
     10 N2          3.8975    3.0958   -1.3329 N.am      1 <0>        -0.6004
     11 C7          3.0041    4.2115   -1.6544 C.3       1 <0>         0.1521
     12 C8          2.8401    5.0895   -0.4406 C.ar      1 <0>        -0.1095
     13 C9          1.8271    4.8347    0.4649 C.ar      1 <0>        -0.0922
     14 C10         1.6767    5.6400    1.5783 C.ar      1 <0>        -0.1199
     15 C11         2.5394    6.6998    1.7865 C.ar      1 <0>        -0.1140
     16 C12         3.5530    6.9540    0.8815 C.ar      1 <0>        -0.1226
     17 C13         3.7061    6.1461   -0.2297 C.ar      1 <0>        -0.1105
     18 C14         5.3485    3.2633   -1.4455 C.3       1 <0>         0.1903
     19 C15         5.7677    3.0626   -2.8790 C.2       1 <0>        -0.1786
     20 C16         5.9488    3.9878   -3.8529 C.2       1 <0>        -0.0988
     21 C17         6.3410    3.5692   -5.1106 C.2       1 <0>        -0.1561
     22 C18         6.5328    2.2459   -5.3328 C.2       1 <0>        -0.1585
     23 S1          6.1621    1.5453   -3.7331 S.3       1 <0>         0.0316
     24 C19         5.7255    5.4509   -3.5690 C.3       1 <0>        -0.1097
     25 C20         3.1393   -0.4974    1.1240 C.2       1 <0>         0.5714
     26 O2          3.4191    0.3813    1.9159 O.2       1 <0>        -0.5192
     27 C21         2.3931   -1.6906    1.5770 C.ar      1 <0>        -0.0865
     28 C22         1.0260   -1.8024    1.3177 C.ar      1 <0>        -0.0982
     29 C23         0.3344   -2.9180    1.7421 C.ar      1 <0>        -0.0876
     30 C24         0.9922   -3.9261    2.4239 C.ar      1 <0>        -0.1381
     31 C25         2.3488   -3.8224    2.6855 C.ar      1 <0>         0.1015
     32 C26         3.0536   -2.7122    2.2603 C.ar      1 <0>        -0.1177
     33 F1          2.9846   -4.8103    3.3526 F         1 <0>        -0.1341
     34 H2          4.9751   -2.4442    0.5297 H         1 <0>         0.0522
     35 H3          3.9884   -3.7981   -0.0718 H         1 <0>         0.0562
     36 H4          5.6869   -3.6399   -0.5802 H         1 <0>         0.0587
     37 H5          5.1564   -1.5779   -1.8097 H         1 <0>         0.0670
     38 H6          4.0912   -2.8951   -2.3563 H         1 <0>         0.0792
     39 H7          2.0416   -1.4918   -2.9990 H         1 <0>         0.0695
     40 H8          1.8232    0.0218   -2.0883 H         1 <0>         0.0818
     41 H9          3.3478   -0.2834   -2.9548 H         1 <0>         0.0569
     42 H10         4.9822    1.0643    0.1965 H         1 <0>         0.1107
     43 H11         4.8800    0.4972   -1.4876 H         1 <0>         0.1080
     44 H12         3.4308    4.7952   -2.4700 H         1 <0>         0.0880
     45 H13         2.0314    3.8229   -1.9558 H         1 <0>         0.0961
     46 H14         1.1531    4.0067    0.3023 H         1 <0>         0.1249
     47 H15         0.8848    5.4414    2.2854 H         1 <0>         0.1216
     48 H16         2.4214    7.3295    2.6560 H         1 <0>         0.1215
     49 H17         4.2268    7.7822    1.0440 H         1 <0>         0.1222
     50 H18         4.5002    6.3424   -0.9348 H         1 <0>         0.1193
     51 H19         5.6244    4.2675   -1.1235 H         1 <0>         0.1053
     52 H20         5.8491    2.5290   -0.8143 H         1 <0>         0.0967
     53 H21         6.4919    4.2858   -5.9044 H         1 <0>         0.1357
     54 H22         6.8354    1.7456   -6.2408 H         1 <0>         0.1870
     55 H23         6.6761    5.9216   -3.3183 H         1 <0>         0.0739
     56 H24         5.3034    5.9319   -4.4513 H         1 <0>         0.0700
     57 H25         5.0355    5.5573   -2.7319 H         1 <0>         0.0675
     58 H26         0.5104   -1.0164    0.7859 H         1 <0>         0.1371
     59 H27        -0.7233   -3.0044    1.5419 H         1 <0>         0.1413
     60 H28         0.4459   -4.7974    2.7539 H         1 <0>         0.1410
     61 H29         4.1120   -2.6335    2.4603 H         1 <0>         0.1398
@<TRIPOS>BOND
     1    1    2 1
     2    1   34 1
     3    1   35 1
     4    1   36 1
     5    2    3 1
     6    2   37 1
     7    2   38 1
     8    3    4 1
     9    3    5 1
    10    3    6 1
    11    5   39 1
    12    5   40 1
    13    5   41 1
    14    6    7 1
    15    6   25 am
    16    7    8 1
    17    7   42 1
    18    7   43 1
    19    8    9 2
    20    8   10 am
    21   10   11 1
    22   10   18 1
    23   11   12 1
    24   11   44 1
    25   11   45 1
    26   12   17 ar
    27   12   13 ar
    28   13   14 ar
    29   13   46 1
    30   14   15 ar
    31   14   47 1
    32   15   16 ar
    33   15   48 1
    34   16   17 ar
    35   16   49 1
    36   17   50 1
    37   18   19 1
    38   18   51 1
    39   18   52 1
    40   19   23 1
    41   19   20 2
    42   20   21 1
    43   20   24 1
    44   21   22 2
    45   21   53 1
    46   22   23 1
    47   22   54 1
    48   24   55 1
    49   24   56 1
    50   24   57 1
    51   25   26 2
    52   25   27 1
    53   27   32 ar
    54   27   28 ar
    55   28   29 ar
    56   28   58 1
    57   29   30 ar
    58   29   59 1
    59   30   31 ar
    60   30   60 1
    61   31   32 ar
    62   31   33 1
    63   32   61 1
@<TRIPOS>MOLECULE
ZINC47132286
   56    59     0     0     0
SMALL
USER_CHARGES

@<TRIPOS>ATOM
      1 C1         -1.3232    1.0137    0.7181 C.3       1 <0>        -0.1226
      2 C2         -0.8848   -0.4139    0.5157 C.ar      1 <0>        -0.0323
      3 C3         -0.8165   -0.9408   -0.7597 C.ar      1 <0>        -0.1391
      4 C4         -0.4129   -2.2547   -0.9455 C.ar      1 <0>         0.1407
      5 C5         -0.0786   -3.0374    0.1502 C.ar      1 <0>        -0.2060
      6 C6         -0.1483   -2.5071    1.4236 C.ar      1 <0>        -0.0621
      7 C7         -0.5457   -1.1942    1.6066 C.ar      1 <0>        -0.0757
      8 Cl1        -0.6256   -0.5277    3.2075 Cl        1 <0>        -0.0664
      9 O1         -0.3454   -2.7750   -2.1994 O.3       1 <0>        -0.2807
     10 C8          0.1266   -4.1184   -2.3199 C.3       1 <0>         0.0646
     11 H1         -0.2301   -4.7060   -1.4740 H         1 <0>         0.1026
     12 C9          1.6565   -4.1220   -2.3344 C.3       1 <0>        -0.1799
     13 C10        -0.3893   -4.7191   -3.6021 C.2       1 <0>         0.5268
     14 O2         -0.8734   -4.0050   -4.4545 O.2       1 <0>        -0.4932
     15 N1         -0.3128   -6.0498   -3.8014 N.am      1 <0>        -0.6040
     16 C11         0.1631   -6.9252   -2.7275 C.3       1 <0>         0.1807
     17 C12        -1.0154   -7.4567   -1.9532 C.2       1 <0>        -0.0514
     18 C13        -1.6834   -8.5936   -2.2193 C.2       1 <0>        -0.1822
     19 C14        -2.7070   -8.7036   -1.2503 C.2       1 <0>        -0.2151
     20 C15        -2.6033   -7.6274   -0.4500 C.2       1 <0>        -0.0255
     21 O3         -1.5734   -6.8787   -0.8770 O.3       1 <0>        -0.1752
     22 C16        -0.7056   -6.6209   -5.0921 C.3       1 <0>         0.1965
     23 C17         0.4923   -6.6695   -6.0053 C.2       1 <0>        -0.0401
     24 C18         1.3547   -7.6957   -6.1175 C.2       1 <0>        -0.1876
     25 C19         2.3178   -7.3178   -7.0811 C.2       1 <0>        -0.2111
     26 C20         1.9864   -6.0833   -7.5000 C.2       1 <0>         0.0379
     27 O4          0.8765   -5.6980   -6.8492 O.3       1 <0>        -0.1584
     28 C21         2.7309   -5.2724   -8.5292 C.3       1 <0>        -0.0893
     29 H2          3.7889   -5.5103   -8.6397 H         1 <0>         0.1346
     30 C22         2.3115   -3.8131   -8.7172 C.3       1 <0>        -0.1652
     31 C23         1.9662   -4.8528   -9.7862 C.3       1 <0>        -0.1361
     32 H3          2.5211   -4.8142  -10.7236 H         1 <0>         0.1143
     33 C24         0.5041   -5.2886   -9.9021 C.3       1 <0>        -0.1260
     34 H4         -0.4529    1.6691    0.6861 H         1 <0>         0.0805
     35 H5         -2.0195    1.2955   -0.0718 H         1 <0>         0.0749
     36 H6         -1.8144    1.1091    1.6865 H         1 <0>         0.0774
     37 H7         -1.0774   -0.3301   -1.6114 H         1 <0>         0.1420
     38 H8          0.2355   -4.0608    0.0075 H         1 <0>         0.1368
     39 H9          0.1118   -3.1160    2.2768 H         1 <0>         0.1373
     40 H10         2.0299   -3.7741   -1.3712 H         1 <0>         0.0809
     41 H11         2.0158   -5.1343   -2.5192 H         1 <0>         0.0814
     42 H12         2.0140   -3.4600   -3.1231 H         1 <0>         0.0806
     43 H13         0.7207   -7.7574   -3.1573 H         1 <0>         0.1198
     44 H14         0.8122   -6.3599   -2.0587 H         1 <0>         0.1025
     45 H15        -1.4777   -9.2886   -3.0199 H         1 <0>         0.1503
     46 H16        -3.4331   -9.4990   -1.1685 H         1 <0>         0.1513
     47 H17        -3.2381   -7.4053    0.3951 H         1 <0>         0.2050
     48 H18        -1.0888   -7.6301   -4.9414 H         1 <0>         0.1149
     49 H19        -1.4810   -6.0013   -5.5427 H         1 <0>         0.1056
     50 H20         1.3186   -8.6290   -5.5752 H         1 <0>         0.1483
     51 H21         3.1585   -7.9071   -7.4162 H         1 <0>         0.1481
     52 H22         1.4971   -3.4395   -8.0964 H         1 <0>         0.1023
     53 H23         3.0936   -3.0909   -8.9516 H         1 <0>         0.1033
     54 H24        -0.0648   -4.8774   -9.0682 H         1 <0>         0.0607
     55 H25         0.0890   -4.9219  -10.8409 H         1 <0>         0.0637
     56 H26         0.4465   -6.3768   -9.8798 H         1 <0>         0.0590
@<TRIPOS>BOND
     1    1    2 1
     2    1   34 1
     3    1   35 1
     4    1   36 1
     5    2    7 ar
     6    2    3 ar
     7    3    4 ar
     8    3   37 1
     9    4    5 ar
    10    4    9 1
    11    5    6 ar
    12    5   38 1
    13    6    7 ar
    14    6   39 1
    15    7    8 1
    16    9   10 1
    17   10   11 1
    18   10   12 1
    19   10   13 1
    20   12   40 1
    21   12   41 1
    22   12   42 1
    23   13   14 2
    24   13   15 am
    25   15   16 1
    26   15   22 1
    27   16   17 1
    28   16   43 1
    29   16   44 1
    30   17   21 1
    31   17   18 2
    32   18   19 1
    33   18   45 1
    34   19   20 2
    35   19   46 1
    36   20   21 1
    37   20   47 1
    38   22   23 1
    39   22   48 1
    40   22   49 1
    41   23   27 1
    42   23   24 2
    43   24   25 1
    44   24   50 1
    45   25   26 2
    46   25   51 1
    47   26   27 1
    48   26   28 1
    49   28   29 1
    50   28   31 1
    51   28   30 1
    52   30   31 1
    53   30   52 1
    54   30   53 1
    55   31   32 1
    56   31   33 1
    57   33   54 1
    58   33   55 1
    59   33   56 1
@<TRIPOS>MOLECULE
ZINC10528324
   58    61     0     0     0
SMALL
USER_CHARGES
N-(2-furylmethyl)-N-(6-methoxybenzothiazol-2-yl)-4-pentoxy-benzamide
@<TRIPOS>ATOM
      1 C1         15.0460    6.9844   -6.3204 C.3       1 <0>        -0.1548
      2 C2         14.6994    5.5024   -6.1648 C.3       1 <0>        -0.1244
      3 C3         13.4874    5.3562   -5.2425 C.3       1 <0>        -0.1178
      4 C4         13.1407    3.8741   -5.0869 C.3       1 <0>        -0.1206
      5 C5         11.9287    3.7279   -4.1647 C.3       1 <0>         0.0545
      6 O1         11.6050    2.3436   -4.0193 O.3       1 <0>        -0.3070
      7 C6         10.5463    2.0384   -3.2271 C.ar      1 <0>         0.1679
      8 C7         10.1781    0.7107   -3.0433 C.ar      1 <0>        -0.1541
      9 C8          9.1046    0.3967   -2.2403 C.ar      1 <0>        -0.0122
     10 C9          8.3851    1.4151   -1.6091 C.ar      1 <0>        -0.1764
     11 C10         8.7553    2.7491   -1.8007 C.ar      1 <0>        -0.0618
     12 C11         9.8333    3.0543   -2.6012 C.ar      1 <0>        -0.2119
     13 C12         7.2341    1.0833   -0.7477 C.2       1 <0>         0.5710
     14 O2          7.2714    0.0982   -0.0360 O.2       1 <0>        -0.4836
     15 N1          6.1413    1.8721   -0.7497 N.am      1 <0>        -0.4984
     16 C13         6.0606    3.0095   -1.6694 C.3       1 <0>         0.1658
     17 C14         5.7815    4.2680   -0.8888 C.2       1 <0>        -0.0320
     18 C15         6.7018    5.0336   -0.2754 C.2       1 <0>        -0.1948
     19 C16         6.0056    6.1045    0.3307 C.2       1 <0>        -0.2193
     20 C17         4.7015    5.9293    0.0515 C.2       1 <0>        -0.0218
     21 O3          4.5723    4.8185   -0.6923 O.3       1 <0>        -0.1417
     22 C18         5.0946    1.6074    0.1177 C.2       1 <0>         0.3482
     23 N2          3.9615    2.2534    0.2614 N.2       1 <0>        -0.5150
     24 C19         3.0203    1.8789    1.1567 C.ar      1 <0>         0.0660
     25 C20         1.7670    2.4834    1.4085 C.ar      1 <0>        -0.0233
     26 C21         0.9211    1.9750    2.3585 C.ar      1 <0>        -0.1899
     27 C22         1.2609    0.8518    3.1070 C.ar      1 <0>         0.1441
     28 C23         2.4831    0.2349    2.8849 C.ar      1 <0>        -0.0975
     29 C24         3.3338    0.7409    1.9339 C.ar      1 <0>        -0.1420
     30 S1          4.9432    0.2985    1.3251 S.3       1 <0>         0.1001
     31 O4          0.4050    0.3654    4.0451 O.3       1 <0>        -0.3095
     32 C25        -0.8338    1.0574    4.2140 C.3       1 <0>         0.0251
     33 H1         15.2798    7.4074   -5.3433 H         1 <0>         0.0544
     34 H2         15.9094    7.0886   -6.9774 H         1 <0>         0.0558
     35 H3         14.1957    7.5132   -6.7511 H         1 <0>         0.0544
     36 H4         15.5496    4.9736   -5.7340 H         1 <0>         0.0636
     37 H5         14.4656    5.0794   -7.1418 H         1 <0>         0.0637
     38 H6         12.6371    5.8849   -5.6733 H         1 <0>         0.0660
     39 H7         13.7211    5.7791   -4.2655 H         1 <0>         0.0659
     40 H8         13.9910    3.3454   -4.6561 H         1 <0>         0.0758
     41 H9         12.9069    3.4511   -6.0639 H         1 <0>         0.0759
     42 H10        11.0785    4.2566   -4.5954 H         1 <0>         0.0673
     43 H11        12.1625    4.1508   -3.1876 H         1 <0>         0.0670
     44 H12        10.7347   -0.0758   -3.5314 H         1 <0>         0.1447
     45 H13         8.8192   -0.6352   -2.0980 H         1 <0>         0.1455
     46 H14         8.1988    3.5393   -1.3186 H         1 <0>         0.1433
     47 H15        10.1225    4.0846   -2.7465 H         1 <0>         0.1402
     48 H16         7.0061    3.1143   -2.2016 H         1 <0>         0.1468
     49 H17         5.2570    2.8409   -2.3863 H         1 <0>         0.1034
     50 H18         7.7679    4.8627   -0.2502 H         1 <0>         0.1468
     51 H19         6.4379    6.9087    0.9076 H         1 <0>         0.1490
     52 H20         3.8956    6.5751    0.3673 H         1 <0>         0.2023
     53 H21         1.4730    3.3565    0.8449 H         1 <0>         0.1351
     54 H22        -0.0323    2.4535    2.5274 H         1 <0>         0.1386
     55 H23         2.7636   -0.6374    3.4566 H         1 <0>         0.1408
     56 H24        -0.6368    2.0895    4.5043 H         1 <0>         0.0583
     57 H25        -1.3887    1.0434    3.2760 H         1 <0>         0.0585
     58 H26        -1.4208    0.5673    4.9907 H         1 <0>         0.1039
@<TRIPOS>BOND
     1    1    2 1
     2    1   33 1
     3    1   34 1
     4    1   35 1
     5    2    3 1
     6    2   36 1
     7    2   37 1
     8    3    4 1
     9    3   38 1
    10    3   39 1
    11    4    5 1
    12    4   40 1
    13    4   41 1
    14    5    6 1
    15    5   42 1
    16    5   43 1
    17    6    7 1
    18    7   12 ar
    19    7    8 ar
    20    8    9 ar
    21    8   44 1
    22    9   10 ar
    23    9   45 1
    24   10   11 ar
    25   10   13 1
    26   11   12 ar
    27   11   46 1
    28   12   47 1
    29   13   14 2
    30   13   15 am
    31   15   16 1
    32   15   22 1
    33   16   17 1
    34   16   48 1
    35   16   49 1
    36   17   21 1
    37   17   18 2
    38   18   19 1
    39   18   50 1
    40   19   20 2
    41   19   51 1
    42   20   21 1
    43   20   52 1
    44   22   30 1
    45   22   23 2
    46   23   24 1
    47   24   29 ar
    48   24   25 ar
    49   25   26 ar
    50   25   53 1
    51   26   27 ar
    52   26   54 1
    53   27   28 ar
    54   27   31 1
    55   28   29 ar
    56   28   55 1
    57   29   30 1
    58   31   32 1
    59   32   56 1
    60   32   57 1
    61   32   58 1
@<TRIPOS>MOLECULE
ZINC16846218
   58    61     0     0     0
SMALL
USER_CHARGES
pentyl 2-(ethylsulfanyl-methyl-BLAHyl)sulfanylacetate
@<TRIPOS>ATOM
      1 C1        -14.5593    5.3413    0.1712 C.3       1 <0>        -0.1548
      2 C2        -13.0721    5.7007    0.1585 C.3       1 <0>        -0.1238
      3 C3        -12.2376    4.4184    0.1440 C.3       1 <0>        -0.1183
      4 C4        -10.7505    4.7778    0.1313 C.3       1 <0>        -0.1212
      5 C5         -9.9160    3.4955    0.1168 C.3       1 <0>         0.0671
      6 O1         -8.5047    3.8366    0.1048 O.3       1 <0>        -0.3469
      7 C6         -7.6315    2.8173    0.0912 C.2       1 <0>         0.4880
      8 O2         -8.0331    1.6777    0.0895 O.2       1 <0>        -0.4887
      9 C7         -6.1502    3.0942    0.0781 C.3       1 <0>        -0.1309
     10 S1         -5.2417    1.5241    0.0615 S.3       1 <0>         0.1083
     11 C8         -3.5485    2.0115    0.0474 C.2       1 <0>         0.1370
     12 N1         -3.0919    3.2425    0.0625 N.2       1 <0>        -0.2499
     13 N2         -1.8041    3.2419    0.0443 N.2       1 <0>        -0.2584
     14 C9         -1.3640    2.0079    0.0318 C.2       1 <0>         0.2584
     15 N3         -2.4635    1.1777    0.0327 N.pl3     1 <0>        -0.4127
     16 C10        -2.3062   -0.1828    0.0237 C.2       1 <0>         0.3446
     17 N4         -1.1133   -0.7308    0.0089 N.2       1 <0>        -0.4457
     18 C11         0.0021   -0.0041    0.0020 C.2       1 <0>         0.0558
     19 C12        -0.0169    1.3973    0.0097 C.2       1 <0>        -0.0878
     20 C13         1.2862    2.0570    0.0008 C.2       1 <0>        -0.0740
     21 C14         2.3768    1.2596   -0.0142 C.2       1 <0>        -0.1423
     22 S2          1.7345   -0.3923   -0.0169 S.3       1 <0>         0.1680
     23 C15         3.8128    1.6861   -0.0256 C.3       1 <0>        -0.0405
     24 C16         3.8722    3.1763   -0.3912 C.3       1 <0>        -0.1111
     25 C17         2.8486    3.9328    0.4605 C.3       1 <0>        -0.0937
     26 H1          2.9754    3.6566    1.5073 H         1 <0>         0.0748
     27 C18         1.4318    3.5763    0.0090 C.3       1 <0>        -0.0548
     28 C19         3.0689    5.4385    0.3019 C.3       1 <0>        -0.1477
     29 S3         -3.7324   -1.2175    0.0316 S.3       1 <0>         0.0372
     30 C20        -2.9401   -2.8448    0.0145 C.3       1 <0>        -0.1103
     31 C21        -4.0137   -3.9349    0.0186 C.3       1 <0>        -0.1443
     32 H2        -14.8004    4.7609   -0.7193 H         1 <0>         0.0545
     33 H3        -14.7830    4.7521    1.0605 H         1 <0>         0.0545
     34 H4        -15.1538    6.2548    0.1815 H         1 <0>         0.0557
     35 H5        -12.8310    6.2811    1.0490 H         1 <0>         0.0637
     36 H6        -12.8483    6.2899   -0.7308 H         1 <0>         0.0637
     37 H7        -12.4788    3.8380   -0.7465 H         1 <0>         0.0668
     38 H8        -12.4614    3.8292    1.0333 H         1 <0>         0.0668
     39 H9        -10.5093    5.3583    1.0218 H         1 <0>         0.0765
     40 H10       -10.5267    5.3670   -0.7580 H         1 <0>         0.0765
     41 H11       -10.1571    2.9151   -0.7737 H         1 <0>         0.0751
     42 H12       -10.1398    2.9064    1.0061 H         1 <0>         0.0751
     43 H13        -5.8787    3.6616    0.9683 H         1 <0>         0.1414
     44 H14        -5.8961    3.6704   -0.8115 H         1 <0>         0.1413
     45 H15         4.2493    1.5323    0.9612 H         1 <0>         0.0912
     46 H16         4.3627    1.1046   -0.7655 H         1 <0>         0.0890
     47 H17         3.6342    3.3034   -1.4473 H         1 <0>         0.0712
     48 H18         4.8715    3.5624   -0.1904 H         1 <0>         0.0794
     49 H19         1.2594    3.9653   -0.9945 H         1 <0>         0.0826
     50 H20         0.7084    4.0090    0.7001 H         1 <0>         0.0861
     51 H21         2.3456    5.9780    0.9133 H         1 <0>         0.0581
     52 H22         4.0787    5.6939    0.6234 H         1 <0>         0.0584
     53 H23         2.9395    5.7165   -0.7441 H         1 <0>         0.0571
     54 H24        -2.3277   -2.9414   -0.8821 H         1 <0>         0.1042
     55 H25        -2.3104   -2.9517    0.8977 H         1 <0>         0.1042
     56 H26        -4.6434   -3.8280   -0.8647 H         1 <0>         0.0699
     57 H27        -3.5366   -4.9148    0.0082 H         1 <0>         0.0858
     58 H28        -4.6260   -3.8383    0.9151 H         1 <0>         0.0699
@<TRIPOS>BOND
     1    1    2 1
     2    1   32 1
     3    1   33 1
     4    1   34 1
     5    2    3 1
     6    2   35 1
     7    2   36 1
     8    3    4 1
     9    3   37 1
    10    3   38 1
    11    4    5 1
    12    4   39 1
    13    4   40 1
    14    5    6 1
    15    5   41 1
    16    5   42 1
    17    6    7 1
    18    7    8 2
    19    7    9 1
    20    9   10 1
    21    9   43 1
    22    9   44 1
    23   10   11 1
    24   11   15 1
    25   11   12 2
    26   12   13 1
    27   13   14 2
    28   14   19 1
    29   14   15 1
    30   15   16 1
    31   16   17 2
    32   16   29 1
    33   17   18 1
    34   18   22 1
    35   18   19 2
    36   19   20 1
    37   20   27 1
    38   20   21 2
    39   21   22 1
    40   21   23 1
    41   23   24 1
    42   23   45 1
    43   23   46 1
    44   24   25 1
    45   24   47 1
    46   24   48 1
    47   25   26 1
    48   25   27 1
    49   25   28 1
    50   27   49 1
    51   27   50 1
    52   28   51 1
    53   28   52 1
    54   28   53 1
    55   29   30 1
    56   30   31 1
    57   30   54 1
    58   30   55 1
    59   31   56 1
    60   31   57 1
    61   31   58 1
@<TRIPOS>MOLECULE
ZINC35065345
   70    72     0     0     0
SMALL
USER_CHARGES

@<TRIPOS>ATOM
      1 C1          5.9155   -1.9129    3.3963 C.3       1 <0>        -0.1539
      2 C2          4.9421   -2.7207    2.5355 C.3       1 <0>        -0.1252
      3 C3          4.9968   -2.2149    1.0925 C.3       1 <0>        -0.1258
      4 C4          4.0235   -3.0227    0.2317 C.3       1 <0>        -0.1103
      5 C5          4.2161   -2.6522   -1.2402 C.3       1 <0>        -0.1033
      6 H1          5.2686   -2.7518   -1.5052 H         1 <0>         0.0916
      7 C6          3.7681   -1.2066   -1.4651 C.3       1 <0>        -0.1162
      8 C7          4.9304   -0.2593   -1.1608 C.3       1 <0>        -0.1686
      9 C8          3.3917   -3.5734   -2.1021 C.2       1 <0>         0.5239
     10 O1          2.5514   -4.2867   -1.5962 O.2       1 <0>        -0.5130
     11 N1          3.5883   -3.6045   -3.4351 N.am      1 <0>        -0.6064
     12 C9          4.6830   -2.8356   -4.0322 C.3       1 <0>         0.0996
     13 C10         5.9435   -3.7010   -4.0871 C.3       1 <0>        -0.1473
     14 C11         7.1287   -2.8475   -4.5430 C.3       1 <0>        -0.1482
     15 C12         2.7073   -4.4073   -4.2869 C.3       1 <0>         0.1854
     16 H2          1.9984   -4.9531   -3.6642 H         1 <0>         0.1268
     17 C13         1.9442   -3.4873   -5.2419 C.3       1 <0>        -0.1442
     18 C14         3.5327   -5.3848   -5.0833 C.2       1 <0>         0.3940
     19 N2          3.6773   -5.1754   -6.3565 N.2       1 <0>        -0.5039
     20 C15         4.4059   -6.0124   -7.1367 C.ar      1 <0>         0.1519
     21 C16         4.5620   -5.7871   -8.5060 C.ar      1 <0>        -0.1076
     22 C17         5.3106   -6.6624   -9.2600 C.ar      1 <0>        -0.0722
     23 C18         5.9136   -7.7690   -8.6760 C.ar      1 <0>        -0.1359
     24 C19         5.7739   -8.0128   -7.3274 C.ar      1 <0>        -0.0412
     25 C20         5.0210   -7.1385   -6.5460 C.ar      1 <0>        -0.1951
     26 C21         4.8381   -7.3475   -5.1024 C.2       1 <0>         0.5467
     27 O2          5.3414   -8.2980   -4.5323 O.2       1 <0>        -0.4954
     28 N3          4.0930   -6.4390   -4.4306 N.am      1 <0>        -0.4922
     29 C22         3.8921   -6.5885   -3.0526 C.ar      1 <0>         0.1103
     30 C23         2.7334   -7.1906   -2.5796 C.ar      1 <0>        -0.1004
     31 C24         2.5384   -7.3370   -1.2204 C.ar      1 <0>        -0.0867
     32 C25         3.4956   -6.8848   -0.3304 C.ar      1 <0>        -0.0877
     33 C26         4.6500   -6.2846   -0.7981 C.ar      1 <0>        -0.0691
     34 C27         4.8535   -6.1403   -2.1567 C.ar      1 <0>        -0.1000
     35 C28         5.6899   -5.7923    0.1752 C.3       1 <0>        -0.1170
     36 H3          6.9273   -2.0304    3.0082 H         1 <0>         0.0529
     37 H4          5.6361   -0.8597    3.3696 H         1 <0>         0.0531
     38 H5          5.8765   -2.2733    4.4243 H         1 <0>         0.0533
     39 H6          5.2215   -3.7739    2.5621 H         1 <0>         0.0605
     40 H7          3.9304   -2.6032    2.9235 H         1 <0>         0.0613
     41 H8          4.7175   -1.1617    1.0659 H         1 <0>         0.0726
     42 H9          6.0086   -2.3324    0.7045 H         1 <0>         0.0608
     43 H10         4.2162   -4.0870    0.3667 H         1 <0>         0.0814
     44 H11         3.0001   -2.7978    0.5321 H         1 <0>         0.0695
     45 H12         3.4578   -1.0796   -2.5022 H         1 <0>         0.0663
     46 H13         2.9312   -0.9787   -0.8049 H         1 <0>         0.0721
     47 H14         4.5798    0.7719   -1.2052 H         1 <0>         0.0577
     48 H15         5.3182   -0.4686   -0.1638 H         1 <0>         0.0749
     49 H16         5.7211   -0.4063   -1.8965 H         1 <0>         0.0537
     50 H17         4.4058   -2.5330   -5.0420 H         1 <0>         0.0875
     51 H18         4.8766   -1.9495   -3.4277 H         1 <0>         0.0923
     52 H19         6.1483   -4.1078   -3.0968 H         1 <0>         0.0655
     53 H20         5.7923   -4.5188   -4.7917 H         1 <0>         0.0565
     54 H21         8.0267   -3.4641   -4.5820 H         1 <0>         0.0576
     55 H22         6.9239   -2.4408   -5.5332 H         1 <0>         0.0586
     56 H23         7.2798   -2.0297   -3.8384 H         1 <0>         0.0591
     57 H24         1.2256   -4.0736   -5.8147 H         1 <0>         0.0735
     58 H25         1.4165   -2.7253   -4.6683 H         1 <0>         0.0671
     59 H26         2.6469   -3.0075   -5.9232 H         1 <0>         0.0771
     60 H27         4.0972   -4.9304   -8.9713 H         1 <0>         0.1408
     61 H28         5.4303   -6.4866  -10.3188 H         1 <0>         0.1358
     62 H29         6.4968   -8.4443   -9.2846 H         1 <0>         0.1347
     63 H30         6.2448   -8.8751   -6.8790 H         1 <0>         0.1374
     64 H31         1.9854   -7.5436   -3.2741 H         1 <0>         0.1194
     65 H32         1.6374   -7.8048   -0.8520 H         1 <0>         0.1277
     66 H33         3.3408   -7.0004    0.7322 H         1 <0>         0.1244
     67 H34         5.7576   -5.6758   -2.5216 H         1 <0>         0.1205
     68 H35         6.4043   -6.5902    0.3780 H         1 <0>         0.0719
     69 H36         6.2124   -4.9370   -0.2531 H         1 <0>         0.0648
     70 H37         5.2052   -5.4938    1.1047 H         1 <0>         0.0740
@<TRIPOS>BOND
     1    1    2 1
     2    1   36 1
     3    1   37 1
     4    1   38 1
     5    2    3 1
     6    2   39 1
     7    2   40 1
     8    3    4 1
     9    3   41 1
    10    3   42 1
    11    4    5 1
    12    4   43 1
    13    4   44 1
    14    5    6 1
    15    5    7 1
    16    5    9 1
    17    7    8 1
    18    7   45 1
    19    7   46 1
    20    8   47 1
    21    8   48 1
    22    8   49 1
    23    9   10 2
    24    9   11 am
    25   11   12 1
    26   11   15 1
    27   12   13 1
    28   12   50 1
    29   12   51 1
    30   13   14 1
    31   13   52 1
    32   13   53 1
    33   14   54 1
    34   14   55 1
    35   14   56 1
    36   15   16 1
    37   15   17 1
    38   15   18 1
    39   17   57 1
    40   17   58 1
    41   17   59 1
    42   18   28 1
    43   18   19 2
    44   19   20 1
    45   20   25 ar
    46   20   21 ar
    47   21   22 ar
    48   21   60 1
    49   22   23 ar
    50   22   61 1
    51   23   24 ar
    52   23   62 1
    53   24   25 ar
    54   24   63 1
    55   25   26 1
    56   26   27 2
    57   26   28 am
    58   28   29 1
    59   29   34 ar
    60   29   30 ar
    61   30   31 ar
    62   30   64 1
    63   31   32 ar
    64   31   65 1
    65   32   33 ar
    66   32   66 1
    67   33   34 ar
    68   33   35 1
    69   34   67 1
    70   35   68 1
    71   35   69 1
    72   35   70 1
@<TRIPOS>MOLECULE
ZINC39221732
   56    59     0     0     0
SMALL
USER_CHARGES

@<TRIPOS>ATOM
      1 C1         -0.2245    0.4231   -3.6764 C.3       1 <0>        -0.1529
      2 C2         -0.2041   -1.0310   -3.2011 C.3       1 <0>         0.0502
      3 O1         -1.5047   -1.3988   -2.7372 O.3       1 <0>        -0.2998
      4 C3         -1.6595   -2.6685   -2.2767 C.ar      1 <0>         0.1303
      5 C4         -0.5788   -3.5379   -2.2674 C.ar      1 <0>        -0.1774
      6 C5         -0.7307   -4.8269   -1.8007 C.ar      1 <0>        -0.0563
      7 C6         -1.9741   -5.2591   -1.3364 C.ar      1 <0>        -0.0231
      8 C7         -3.0618   -4.3844   -1.3457 C.ar      1 <0>        -0.1451
      9 C8         -2.9017   -3.0918   -1.8099 C.ar      1 <0>         0.1019
     10 O2         -3.9582   -2.2355   -1.8155 O.3       1 <0>        -0.3011
     11 C9         -5.2023   -2.7368   -1.3224 C.3       1 <0>         0.0224
     12 C10        -2.1387   -6.6404   -0.8364 C.2       1 <0>         0.1727
     13 N1         -1.2425   -7.6127   -0.7398 N.2       1 <0>        -0.4874
     14 C11        -1.5667   -8.7932   -0.2657 C.2       1 <0>         0.0677
     15 C12        -2.8421   -9.0347    0.1368 C.2       1 <0>        -0.1761
     16 S1         -3.5980   -7.4474   -0.1915 S.3       1 <0>         0.0239
     17 C13        -0.5263   -9.8791   -0.1685 C.3       1 <0>        -0.0292
     18 S2          0.2902   -9.7911    1.4490 S.3       1 <0>         0.0137
     19 C14         1.4619  -11.1064    1.4071 C.2       1 <0>         0.1609
     20 N2          1.6689  -11.9347    0.4077 N.2       1 <0>        -0.2892
     21 N3          2.5954  -12.7715    0.7128 N.2       1 <0>        -0.2658
     22 C15         3.0366  -12.5291    1.9251 C.2       1 <0>         0.2282
     23 N4          2.3283  -11.4515    2.4047 N.pl3     1 <0>        -0.4520
     24 C16         2.4716  -10.8099    3.7140 C.3       1 <0>         0.1279
     25 C17         1.4389  -11.3646    4.6610 C.2       1 <0>        -0.1851
     26 C18         1.8071  -11.8488    5.8212 C.2       1 <0>        -0.1570
     27 C19         4.0987  -13.2702    2.6380 C.ar      1 <0>        -0.0205
     28 C20         4.0336  -13.4292    4.0232 C.ar      1 <0>        -0.1163
     29 C21         5.0277  -14.1224    4.6823 C.ar      1 <0>        -0.1178
     30 C22         6.0876  -14.6593    3.9734 C.ar      1 <0>        -0.1027
     31 C23         6.1585  -14.5049    2.6003 C.ar      1 <0>        -0.1164
     32 C24         5.1679  -13.8190    1.9282 C.ar      1 <0>        -0.0737
     33 H1          0.7675    0.7037   -4.0303 H         1 <0>         0.0801
     34 H2         -0.9436    0.5298   -4.4887 H         1 <0>         0.0676
     35 H3         -0.5121    1.0719   -2.8491 H         1 <0>         0.0675
     36 H4          0.0835   -1.6797   -4.0284 H         1 <0>         0.0652
     37 H5          0.5149   -1.1377   -2.3888 H         1 <0>         0.0651
     38 H6          0.3838   -3.2049   -2.6266 H         1 <0>         0.1452
     39 H7          0.1123   -5.5020   -1.7948 H         1 <0>         0.1430
     40 H8         -4.0254   -4.7153   -0.9872 H         1 <0>         0.1402
     41 H9         -5.9587   -1.9544   -1.3824 H         1 <0>         0.1048
     42 H10        -5.5140   -3.5906   -1.9240 H         1 <0>         0.0567
     43 H11        -5.0829   -3.0479   -0.2845 H         1 <0>         0.0566
     44 H12        -3.2775   -9.9345    0.5455 H         1 <0>         0.2051
     45 H13        -1.0047  -10.8519   -0.2815 H         1 <0>         0.1138
     46 H14         0.2142   -9.7445   -0.9570 H         1 <0>         0.1150
     47 H15         3.4687  -11.0068    4.1079 H         1 <0>         0.1083
     48 H16         2.3281   -9.7345    3.6092 H         1 <0>         0.1103
     49 H17         0.3953  -11.3630    4.3831 H         1 <0>         0.1238
     50 H18         2.8548  -11.8953    6.0790 H         1 <0>         0.1061
     51 H19         1.0628  -12.2015    6.5199 H         1 <0>         0.1137
     52 H20         3.2069  -13.0103    4.5777 H         1 <0>         0.1319
     53 H21         4.9787  -14.2458    5.7541 H         1 <0>         0.1297
     54 H22         6.8633  -15.2010    4.4942 H         1 <0>         0.1288
     55 H23         6.9888  -14.9258    2.0528 H         1 <0>         0.1323
     56 H24         5.2221  -13.7029    0.8558 H         1 <0>         0.1343
@<TRIPOS>BOND
     1    1    2 1
     2    1   33 1
     3    1   34 1
     4    1   35 1
     5    2    3 1
     6    2   36 1
     7    2   37 1
     8    3    4 1
     9    4    9 ar
    10    4    5 ar
    11    5    6 ar
    12    5   38 1
    13    6    7 ar
    14    6   39 1
    15    7    8 ar
    16    7   12 1
    17    8    9 ar
    18    8   40 1
    19    9   10 1
    20   10   11 1
    21   11   41 1
    22   11   42 1
    23   11   43 1
    24   12   16 1
    25   12   13 2
    26   13   14 1
    27   14   15 2
    28   14   17 1
    29   15   16 1
    30   15   44 1
    31   17   18 1
    32   17   45 1
    33   17   46 1
    34   18   19 1
    35   19   23 1
    36   19   20 2
    37   20   21 1
    38   21   22 2
    39   22   23 1
    40   22   27 1
    41   23   24 1
    42   24   25 1
    43   24   47 1
    44   24   48 1
    45   25   26 2
    46   25   49 1
    47   26   50 1
    48   26   51 1
    49   27   32 ar
    50   27   28 ar
    51   28   29 ar
    52   28   52 1
    53   29   30 ar
    54   29   53 1
    55   30   31 ar
    56   30   54 1
    57   31   32 ar
    58   31   55 1
    59   32   56 1
@<TRIPOS>MOLECULE
ZINC40065983
   67    70     0     0     0
SMALL
USER_CHARGES

@<TRIPOS>ATOM
      1 C1         -0.0187    1.5258    0.0104 C.3       1 <0>        -0.1547
      2 C2          0.0021   -0.0041    0.0020 C.3       1 <0>        -0.1258
      3 C3          0.7421   -0.5109    1.2415 C.3       1 <0>        -0.1199
      4 C4          0.7628   -2.0407    1.2331 C.3       1 <0>        -0.1174
      5 C5          1.5028   -2.5476    2.4727 C.3       1 <0>        -0.1196
      6 C6          1.5236   -4.0774    2.4642 C.3       1 <0>         0.0582
      7 O1          2.2147   -4.5508    3.6219 O.3       1 <0>        -0.3140
      8 C7          2.3235   -5.8975    3.7679 C.ar      1 <0>         0.1428
      9 C8          1.7812   -6.7459    2.8135 C.ar      1 <0>        -0.2067
     10 C9          1.8935   -8.1145    2.9639 C.ar      1 <0>        -0.0439
     11 C10         2.5453   -8.6391    4.0647 C.ar      1 <0>        -0.1386
     12 C11         3.0862   -7.7957    5.0176 C.ar      1 <0>        -0.0580
     13 C12         2.9819   -6.4262    4.8686 C.ar      1 <0>        -0.1519
     14 C13         2.6659  -10.1325    4.2265 C.3       1 <0>         0.2353
     15 H1          1.9231  -10.6383    3.6097 H         1 <0>         0.1149
     16 C14         4.0397  -10.5820    3.8512 C.2       1 <0>        -0.2506
     17 C15         4.7717  -10.4962    2.5830 C.2       1 <0>         0.4563
     18 O2          4.3804   -9.8467    1.6294 O.2       1 <0>        -0.4348
     19 C16         6.0354  -11.2757    2.5723 C.ar      1 <0>        -0.2156
     20 C17         6.7429  -11.4582    1.3844 C.ar      1 <0>        -0.0342
     21 C18         7.9021  -12.1828    1.3902 C.ar      1 <0>        -0.1394
     22 C19         8.3744  -12.7359    2.5724 C.ar      1 <0>        -0.0243
     23 C20         7.6899  -12.5640    3.7544 C.ar      1 <0>        -0.1028
     24 C21         6.5059  -11.8268    3.7754 C.ar      1 <0>         0.1450
     25 O3          5.8548  -11.6624    4.9494 O.3       1 <0>        -0.1789
     26 C22         4.6057  -11.1566    4.9535 C.2       1 <0>         0.0900
     27 C23         3.6292  -11.1030    6.0555 C.2       1 <0>         0.5742
     28 O4          3.8194  -11.5338    7.1755 O.2       1 <0>        -0.4721
     29 N1          2.4917  -10.5058    5.6398 N.am      1 <0>        -0.5918
     30 C24         1.2951  -10.2698    6.4513 C.3       1 <0>         0.1430
     31 C25         0.3523  -11.4687    6.3305 C.3       1 <0>         0.0375
     32 O5          0.9737  -12.6226    6.9000 O.3       1 <0>        -0.3790
     33 C26         0.1726  -13.8043    6.8384 C.3       1 <0>         0.0316
     34 C27         8.2200  -13.1733    5.0267 C.3       1 <0>        -0.1171
     35 C28         9.6525  -13.5342    2.5619 C.3       1 <0>        -0.1256
     36 H2          1.0039    1.9031    0.0027 H         1 <0>         0.0540
     37 H3         -0.5459    1.8868   -0.8726 H         1 <0>         0.0542
     38 H4         -0.5289    1.8773    0.9072 H         1 <0>         0.0539
     39 H5         -1.0205   -0.3814    0.0098 H         1 <0>         0.0612
     40 H6          0.5123   -0.3556   -0.8948 H         1 <0>         0.0613
     41 H7          1.7647   -0.1336    1.2338 H         1 <0>         0.0637
     42 H8          0.2319   -0.1594    2.1383 H         1 <0>         0.0636
     43 H9         -0.2598   -2.4180    1.2409 H         1 <0>         0.0654
     44 H10         1.2730   -2.3923    0.3363 H         1 <0>         0.0656
     45 H11         2.5254   -2.1703    2.4649 H         1 <0>         0.0744
     46 H12         0.9926   -2.1961    3.3695 H         1 <0>         0.0743
     47 H13         0.5010   -4.4547    2.4720 H         1 <0>         0.0633
     48 H14         2.0337   -4.4289    1.5675 H         1 <0>         0.0636
     49 H15         1.2714   -6.3367    1.9538 H         1 <0>         0.1311
     50 H16         1.4716   -8.7754    2.2211 H         1 <0>         0.1289
     51 H17         3.5945   -8.2078    5.8767 H         1 <0>         0.1239
     52 H18         3.4084   -5.7678    5.6109 H         1 <0>         0.1330
     53 H19         6.3767  -11.0285    0.4637 H         1 <0>         0.1443
     54 H20         8.4522  -12.3257    0.4718 H         1 <0>         0.1389
     55 H21         1.5835  -10.1380    7.4942 H         1 <0>         0.1018
     56 H22         0.7880   -9.3718    6.0983 H         1 <0>         0.1077
     57 H23        -0.5756  -11.2563    6.8616 H         1 <0>         0.0677
     58 H24         0.1345  -11.6552    5.2789 H         1 <0>         0.0542
     59 H25        -0.0490  -14.0392    5.7973 H         1 <0>         0.0393
     60 H26         0.7146  -14.6348    7.2908 H         1 <0>         0.0868
     61 H27        -0.7590  -13.6404    7.3801 H         1 <0>         0.0423
     62 H28         8.8847  -12.4641    5.5199 H         1 <0>         0.0780
     63 H29         7.3880  -13.4125    5.6891 H         1 <0>         0.0750
     64 H30         8.7706  -14.0842    4.7915 H         1 <0>         0.0787
     65 H31        10.4971  -12.8703    2.7458 H         1 <0>         0.0826
     66 H32         9.6120  -14.2951    3.3414 H         1 <0>         0.0793
     67 H33         9.7728  -14.0148    1.5910 H         1 <0>         0.0756
@<TRIPOS>BOND
     1    1    2 1
     2    1   36 1
     3    1   37 1
     4    1   38 1
     5    2    3 1
     6    2   39 1
     7    2   40 1
     8    3    4 1
     9    3   41 1
    10    3   42 1
    11    4    5 1
    12    4   43 1
    13    4   44 1
    14    5    6 1
    15    5   45 1
    16    5   46 1
    17    6    7 1
    18    6   47 1
    19    6   48 1
    20    7    8 1
    21    8   13 ar
    22    8    9 ar
    23    9   10 ar
    24    9   49 1
    25   10   11 ar
    26   10   50 1
    27   11   12 ar
    28   11   14 1
    29   12   13 ar
    30   12   51 1
    31   13   52 1
    32   14   15 1
    33   14   29 1
    34   14   16 1
    35   16   26 2
    36   16   17 1
    37   17   18 2
    38   17   19 1
    39   19   24 ar
    40   19   20 ar
    41   20   21 ar
    42   20   53 1
    43   21   22 ar
    44   21   54 1
    45   22   23 ar
    46   22   35 1
    47   23   24 ar
    48   23   34 1
    49   24   25 1
    50   25   26 1
    51   26   27 1
    52   27   28 2
    53   27   29 am
    54   29   30 1
    55   30   31 1
    56   30   55 1
    57   30   56 1
    58   31   32 1
    59   31   57 1
    60   31   58 1
    61   32   33 1
    62   33   59 1
    63   33   60 1
    64   33   61 1
    65   34   62 1
    66   34   63 1
    67   34   64 1
    68   35   65 1
    69   35   66 1
    70   35   67 1
@<TRIPOS>MOLECULE
ZINC06836360
   60    62     0     0     0
SMALL
USER_CHARGES
methyl 1-ethyl-4-[2-[ethyl-(2-phenylcyclopropyl)carbonyl-amino]acetyl]-3,5-dimethyl-pyrrole-2-carboxylate
@<TRIPOS>ATOM
      1 C1          1.2144   -2.6720    2.4849 C.3       1 <0>        -0.1670
      2 C2          1.8344   -2.0374    1.2383 C.3       1 <0>         0.0888
      3 N1          1.3728   -2.7520    0.0456 N.pl3     1 <0>        -0.4025
      4 C3          1.9790   -3.8131   -0.5062 C.2       1 <0>         0.1105
      5 C4          1.2494   -4.2033   -1.6187 C.2       1 <0>        -0.2608
      6 C5          0.1475   -3.3212   -1.7207 C.2       1 <0>        -0.0155
      7 C6          0.2449   -2.4410   -0.6841 C.2       1 <0>        -0.0516
      8 C7         -0.6878   -1.3460   -0.3975 C.2       1 <0>         0.5358
      9 O1         -1.6506   -1.1633   -1.1173 O.2       1 <0>        -0.4922
     10 O2         -0.4775   -0.5416    0.6644 O.3       1 <0>        -0.3631
     11 C8         -1.4412    0.5214    0.8872 C.3       1 <0>         0.0365
     12 C9         -0.9288   -3.3490   -2.7751 C.3       1 <0>        -0.0959
     13 C10         1.5604   -5.3183   -2.5187 C.2       1 <0>         0.4237
     14 O3          1.0958   -6.4184   -2.3047 O.2       1 <0>        -0.4264
     15 C11         2.4572   -5.0977   -3.7096 C.3       1 <0>         0.0892
     16 N2          2.7121   -6.3789   -4.3729 N.am      1 <0>        -0.6039
     17 C12         3.8587   -7.1970   -3.9700 C.3       1 <0>         0.1047
     18 C13         3.4361   -8.1517   -2.8515 C.3       1 <0>        -0.1692
     19 C14         1.8918   -6.8049   -5.3537 C.2       1 <0>         0.5444
     20 O4          0.9426   -6.1276   -5.6873 O.2       1 <0>        -0.5098
     21 C15         2.1540   -8.1228   -6.0360 C.3       1 <0>        -0.1820
     22 H1          3.2041   -8.3899   -6.1548 H         1 <0>         0.1275
     23 C16         1.1597   -9.2582   -5.7853 C.3       1 <0>        -0.1442
     24 C17         1.1868   -8.5507   -7.1416 C.3       1 <0>        -0.0811
     25 H2          1.6005   -9.0994   -7.9877 H         1 <0>         0.1214
     26 C18         0.0448   -7.6220   -7.4649 C.ar      1 <0>        -0.0500
     27 C19        -0.8822   -7.3013   -6.4909 C.ar      1 <0>        -0.0528
     28 C20        -1.9270   -6.4457   -6.7862 C.ar      1 <0>        -0.1255
     29 C21        -2.0504   -5.9186   -8.0582 C.ar      1 <0>        -0.1184
     30 C22        -1.1266   -6.2438   -9.0337 C.ar      1 <0>        -0.1302
     31 C23        -0.0789   -7.0954   -8.7370 C.ar      1 <0>        -0.1117
     32 C24         3.2416   -4.4664   -0.0060 C.3       1 <0>        -0.0990
     33 H3          1.5578   -2.1403    3.3723 H         1 <0>         0.0803
     34 H4          0.1279   -2.6101    2.4219 H         1 <0>         0.0657
     35 H5          1.5157   -3.7176    2.5484 H         1 <0>         0.0618
     36 H6          2.9208   -2.0993    1.3012 H         1 <0>         0.0955
     37 H7          1.5331   -0.9918    1.1748 H         1 <0>         0.1100
     38 H8         -1.4616    1.1810    0.0197 H         1 <0>         0.0656
     39 H9         -2.4303    0.0893    1.0385 H         1 <0>         0.0653
     40 H10        -1.1550    1.0920    1.7708 H         1 <0>         0.1033
     41 H11        -0.6773   -2.6467   -3.5698 H         1 <0>         0.0768
     42 H12        -1.0056   -4.3543   -3.1895 H         1 <0>         0.0672
     43 H13        -1.8822   -3.0663   -2.3287 H         1 <0>         0.0825
     44 H14         2.0119   -4.4730   -4.3510 H         1 <0>         0.1053
     45 H15         3.4015   -4.6659   -3.3783 H         1 <0>         0.1090
     46 H16         4.2124   -7.7730   -4.8251 H         1 <0>         0.0831
     47 H17         4.6591   -6.5495   -3.6119 H         1 <0>         0.0783
     48 H18         3.0824   -7.5756   -1.9965 H         1 <0>         0.0599
     49 H19         2.6357   -8.7992   -3.2096 H         1 <0>         0.0622
     50 H20         4.2892   -8.7603   -2.5518 H         1 <0>         0.0636
     51 H21         1.5555  -10.2728   -5.7389 H         1 <0>         0.1099
     52 H22         0.3158   -9.0521   -5.1269 H         1 <0>         0.1045
     53 H23        -0.7881   -7.7163   -5.4983 H         1 <0>         0.1101
     54 H24        -2.6490   -6.1919   -6.0241 H         1 <0>         0.1142
     55 H25        -2.8688   -5.2531   -8.2899 H         1 <0>         0.1152
     56 H26        -1.2232   -5.8324  -10.0275 H         1 <0>         0.1163
     57 H27         0.6429   -7.3494   -9.4992 H         1 <0>         0.1149
     58 H28         4.1052   -3.9930   -0.4730 H         1 <0>         0.0861
     59 H29         3.3056   -4.3522    1.0762 H         1 <0>         0.0775
     60 H30         3.2271   -5.5264   -0.2592 H         1 <0>         0.0861
@<TRIPOS>BOND
     1    1    2 1
     2    1   33 1
     3    1   34 1
     4    1   35 1
     5    2    3 1
     6    2   36 1
     7    2   37 1
     8    3    7 1
     9    3    4 1
    10    4    5 2
    11    4   32 1
    12    5    6 1
    13    5   13 1
    14    6    7 2
    15    6   12 1
    16    7    8 1
    17    8    9 2
    18    8   10 1
    19   10   11 1
    20   11   38 1
    21   11   39 1
    22   11   40 1
    23   12   41 1
    24   12   42 1
    25   12   43 1
    26   13   14 2
    27   13   15 1
    28   15   16 1
    29   15   44 1
    30   15   45 1
    31   16   17 1
    32   16   19 am
    33   17   18 1
    34   17   46 1
    35   17   47 1
    36   18   48 1
    37   18   49 1
    38   18   50 1
    39   19   20 2
    40   19   21 1
    41   21   22 1
    42   21   24 1
    43   21   23 1
    44   23   24 1
    45   23   51 1
    46   23   52 1
    47   24   25 1
    48   24   26 1
    49   26   31 ar
    50   26   27 ar
    51   27   28 ar
    52   27   53 1
    53   28   29 ar
    54   28   54 1
    55   29   30 ar
    56   29   55 1
    57   30   31 ar
    58   30   56 1
    59   31   57 1
    60   32   58 1
    61   32   59 1
    62   32   60 1
@<TRIPOS>MOLECULE
ZINC09508286
   56    58     0     0     0
SMALL
USER_CHARGES
N-allyl-3-(diethylsulfamoyl)-N-(4-phenylthiazol-2-yl)-benzamide
@<TRIPOS>ATOM
      1 C1         -8.7345    2.1329   -2.9758 C.3       1 <0>        -0.1756
      2 C2         -7.2836    2.1792   -2.4927 C.3       1 <0>         0.1190
      3 N1         -7.1072    1.2361   -1.3855 N.pl3     1 <0>        -0.9939
      4 C3         -7.4287    1.6457   -0.0162 C.3       1 <0>         0.1073
      5 C4         -6.2251    2.3639    0.5972 C.3       1 <0>        -0.1780
      6 S1         -6.5444   -0.2929   -1.6819 S.o2      1 <0>         2.6876
      7 O1         -6.8523   -0.5831   -3.0385 O.2       1 <0>        -0.9473
      8 O2         -6.9947   -1.1067   -0.6076 O.2       1 <0>        -0.9486
      9 C5         -4.7873   -0.2328   -1.5660 C.ar      1 <0>        -0.6815
     10 C6         -4.0302    0.0433   -2.6910 C.ar      1 <0>         0.0065
     11 C7         -2.6501    0.0928   -2.6086 C.ar      1 <0>        -0.1387
     12 C8         -2.0197   -0.1275   -1.4013 C.ar      1 <0>        -0.0516
     13 C9         -2.7770   -0.4123   -0.2639 C.ar      1 <0>        -0.1490
     14 C10        -4.1694   -0.4607   -0.3540 C.ar      1 <0>         0.0374
     15 C11        -2.1082   -0.6555    1.0314 C.2       1 <0>         0.5593
     16 O3         -2.5681   -0.1806    2.0516 O.2       1 <0>        -0.4532
     17 N2         -0.9883   -1.4037    1.0816 N.am      1 <0>        -0.5020
     18 C12        -0.3598   -1.8657   -0.1585 C.3       1 <0>         0.1159
     19 C13         0.7779   -0.9452   -0.5182 C.2       1 <0>        -0.2098
     20 C14         1.9786   -1.4322   -0.7109 C.2       1 <0>        -0.1355
     21 C15        -0.4304   -1.7368    2.3086 C.2       1 <0>         0.3426
     22 N3         -0.8382   -1.4234    3.5244 N.2       1 <0>        -0.4989
     23 C16        -0.1778   -1.8311    4.5978 C.2       1 <0>         0.1259
     24 C17         0.9482   -2.5911    4.4440 C.2       1 <0>        -0.2141
     25 S2          1.0265   -2.7103    2.6616 S.3       1 <0>         0.0242
     26 C18        -0.6550   -1.4660    5.9537 C.ar      1 <0>        -0.0308
     27 C19         0.0400   -1.9014    7.0808 C.ar      1 <0>        -0.1029
     28 C20        -0.4057   -1.5543    8.3399 C.ar      1 <0>        -0.1231
     29 C21        -1.5464   -0.7853    8.4850 C.ar      1 <0>        -0.1116
     30 C22        -2.2432   -0.3547    7.3702 C.ar      1 <0>        -0.1242
     31 C23        -1.8035   -0.6910    6.1060 C.ar      1 <0>        -0.0804
     32 H1         -8.9723    1.1249   -3.3158 H         1 <0>         0.0641
     33 H2         -9.3993    2.4062   -2.1563 H         1 <0>         0.0610
     34 H3         -8.8658    2.8345   -3.7996 H         1 <0>         0.0707
     35 H4         -7.0458    3.1871   -2.1527 H         1 <0>         0.0826
     36 H5         -6.6188    1.9059   -3.3121 H         1 <0>         0.0810
     37 H6         -8.2855    2.3194   -0.0301 H         1 <0>         0.0884
     38 H7         -7.6687    0.7650    0.5796 H         1 <0>         0.0951
     39 H8         -5.3683    1.6902    0.6112 H         1 <0>         0.0556
     40 H9         -5.9851    3.2446    0.0015 H         1 <0>         0.0614
     41 H10        -6.4643    2.6686    1.6161 H         1 <0>         0.0732
     42 H11        -4.5190    0.2214   -3.6375 H         1 <0>         0.1482
     43 H12        -2.0651    0.3088   -3.4904 H         1 <0>         0.1458
     44 H13        -0.9425   -0.0838   -1.3373 H         1 <0>         0.1523
     45 H14        -4.7614   -0.6765    0.5231 H         1 <0>         0.1505
     46 H15        -1.0966   -1.8638   -0.9618 H         1 <0>         0.1205
     47 H16         0.0217   -2.8770   -0.0176 H         1 <0>         0.0980
     48 H17         0.6023    0.1155   -0.6214 H         1 <0>         0.1226
     49 H18         2.7939   -0.7725   -0.9687 H         1 <0>         0.1114
     50 H19         2.1532   -2.4934   -0.6120 H         1 <0>         0.1056
     51 H20         1.6058   -3.0081    5.1923 H         1 <0>         0.2025
     52 H21         0.9282   -2.5056    6.9687 H         1 <0>         0.1241
     53 H22         0.1345   -1.8874    9.2137 H         1 <0>         0.1259
     54 H23        -1.8942   -0.5197    9.4724 H         1 <0>         0.1234
     55 H24        -3.1331    0.2454    7.4894 H         1 <0>         0.1248
     56 H25        -2.3481   -0.3540    5.2364 H         1 <0>         0.1363
@<TRIPOS>BOND
     1    1    2 1
     2    1   32 1
     3    1   33 1
     4    1   34 1
     5    2    3 1
     6    2   35 1
     7    2   36 1
     8    3    4 1
     9    3    6 1
    10    4    5 1
    11    4   37 1
    12    4   38 1
    13    5   39 1
    14    5   40 1
    15    5   41 1
    16    6    7 2
    17    6    8 2
    18    6    9 1
    19    9   14 ar
    20    9   10 ar
    21   10   11 ar
    22   10   42 1
    23   11   12 ar
    24   11   43 1
    25   12   13 ar
    26   12   44 1
    27   13   14 ar
    28   13   15 1
    29   14   45 1
    30   15   16 2
    31   15   17 am
    32   17   18 1
    33   17   21 1
    34   18   19 1
    35   18   46 1
    36   18   47 1
    37   19   20 2
    38   19   48 1
    39   20   49 1
    40   20   50 1
    41   21   25 1
    42   21   22 2
    43   22   23 1
    44   23   24 2
    45   23   26 1
    46   24   25 1
    47   24   51 1
    48   26   31 ar
    49   26   27 ar
    50   27   28 ar
    51   27   52 1
    52   28   29 ar
    53   28   53 1
    54   29   30 ar
    55   29   54 1
    56   30   31 ar
    57   30   55 1
    58   31   56 1
@<TRIPOS>MOLECULE
ZINC22421827
   59    62     0     0     0
SMALL
USER_CHARGES
(E)-N-[(1-benzylpyrazol-4-yl)methyl]-N-methyl-3-[4-[(2-methylthiazol-4-yl)methoxy]phenyl]prop-2-enamide
@<TRIPOS>ATOM
      1 C1         -8.5518   10.8668  -11.7726 C.3       1 <0>        -0.0706
      2 C2         -7.7955   11.2372  -10.5229 C.2       1 <0>         0.1004
      3 N1         -6.7069   10.6961  -10.0267 N.2       1 <0>        -0.5082
      4 C3         -6.1644   11.1420   -8.9131 C.2       1 <0>         0.0467
      5 C4         -6.7614   12.1812   -8.2756 C.2       1 <0>        -0.1822
      6 S1         -8.1396   12.4898   -9.3704 S.3       1 <0>         0.0443
      7 C5         -4.9147   10.5101   -8.3563 C.3       1 <0>         0.1349
      8 O1         -4.5399   11.1782   -7.1500 O.3       1 <0>        -0.3101
      9 C6         -3.4266   10.7285   -6.5169 C.ar      1 <0>         0.1468
     10 C7         -3.0074   11.3349   -5.3383 C.ar      1 <0>        -0.1519
     11 C8         -1.8792   10.8824   -4.6920 C.ar      1 <0>        -0.0522
     12 C9         -1.1537    9.8101   -5.2239 C.ar      1 <0>        -0.1148
     13 C10        -1.5768    9.2067   -6.4139 C.ar      1 <0>        -0.0569
     14 C11        -2.7098    9.6628   -7.0490 C.ar      1 <0>        -0.2104
     15 C12         0.0520    9.3231   -4.5382 C.2       1 <0>        -0.0115
     16 C13         0.7499    8.2888   -5.0531 C.2       1 <0>        -0.2259
     17 C14         1.9495    7.8043   -4.3709 C.2       1 <0>         0.5524
     18 O2          2.3184    8.3338   -3.3388 O.2       1 <0>        -0.5474
     19 N2          2.6464    6.7716   -4.8850 N.am      1 <0>        -0.6079
     20 C15         2.2023    6.1344   -6.1272 C.3       1 <0>         0.0779
     21 C16         3.8480    6.2863   -4.2017 C.3       1 <0>         0.1924
     22 C17         3.4663    5.2109   -3.2174 C.2       1 <0>        -0.2623
     23 C18         3.3971    3.8394   -3.4827 C.2       1 <0>         0.0560
     24 N3          3.0323    3.2285   -2.3847 N.2       1 <0>        -0.2885
     25 N4          2.8576    4.1935   -1.3844 N.pl3     1 <0>        -0.3671
     26 C19         3.1243    5.4021   -1.9222 C.2       1 <0>         0.0826
     27 C20         2.4510    3.9366   -0.0006 C.3       1 <0>         0.1723
     28 C21         1.1563    3.1654    0.0076 C.ar      1 <0>        -0.1110
     29 C22         1.1750    1.7832    0.0004 C.ar      1 <0>        -0.0829
     30 C23        -0.0126    1.0758    0.0080 C.ar      1 <0>        -0.1233
     31 C24        -1.2190    1.7506    0.0173 C.ar      1 <0>        -0.1090
     32 C25        -1.2377    3.1328    0.0299 C.ar      1 <0>        -0.1239
     33 C26        -0.0501    3.8402    0.0228 C.ar      1 <0>        -0.0995
     34 H1         -8.0514   10.0210  -12.2669 H         1 <0>         0.0973
     35 H2         -8.5758   11.7287  -12.4557 H         1 <0>         0.0932
     36 H3         -9.5802   10.5803  -11.5074 H         1 <0>         0.0931
     37 H4         -6.4805   12.6831   -7.3615 H         1 <0>         0.2024
     38 H5         -5.1046    9.4478   -8.1433 H         1 <0>         0.0853
     39 H6         -4.1011   10.5969   -9.0915 H         1 <0>         0.0855
     40 H7         -3.5679   12.1623   -4.9287 H         1 <0>         0.1363
     41 H8         -1.5544   11.3542   -3.7764 H         1 <0>         0.1371
     42 H9         -1.0180    8.3819   -6.8307 H         1 <0>         0.1308
     43 H10        -3.0400    9.1947   -7.9646 H         1 <0>         0.1332
     44 H11         0.3855    9.8016   -3.6055 H         1 <0>         0.1386
     45 H12         0.4164    7.8103   -5.9858 H         1 <0>         0.1301
     46 H13         2.8918    5.3178   -6.3872 H         1 <0>         0.0794
     47 H14         2.1925    6.8781   -6.9376 H         1 <0>         0.0626
     48 H15         1.1891    5.7289   -5.9894 H         1 <0>         0.0599
     49 H16         4.5493    5.8737   -4.9419 H         1 <0>         0.0862
     50 H17         4.3275    7.1195   -3.6669 H         1 <0>         0.0901
     51 H18         3.6080    3.3663   -4.4304 H         1 <0>         0.1788
     52 H19         3.0761    6.3517   -1.4098 H         1 <0>         0.1739
     53 H20         3.2304    3.3500    0.5077 H         1 <0>         0.0954
     54 H21         2.3113    4.8932    0.5242 H         1 <0>         0.1060
     55 H22         2.1175    1.2560   -0.0115 H         1 <0>         0.1240
     56 H23         0.0021   -0.0041    0.0020 H         1 <0>         0.1246
     57 H24        -2.1469    1.1980    0.0188 H         1 <0>         0.1235
     58 H25        -2.1802    3.6600    0.0414 H         1 <0>         0.1237
     59 H26        -0.0647    4.9201    0.0288 H         1 <0>         0.1201
@<TRIPOS>BOND
     1    1    2 1
     2    1   34 1
     3    1   35 1
     4    1   36 1
     5    2    6 1
     6    2    3 2
     7    3    4 1
     8    4    5 2
     9    4    7 1
    10    5    6 1
    11    5   37 1
    12    7    8 1
    13    7   38 1
    14    7   39 1
    15    8    9 1
    16    9   14 ar
    17    9   10 ar
    18   10   11 ar
    19   10   40 1
    20   11   12 ar
    21   11   41 1
    22   12   13 ar
    23   12   15 1
    24   13   14 ar
    25   13   42 1
    26   14   43 1
    27   15   16 2
    28   15   44 1
    29   16   17 1
    30   16   45 1
    31   17   18 2
    32   17   19 am
    33   19   20 1
    34   19   21 1
    35   20   46 1
    36   20   47 1
    37   20   48 1
    38   21   22 1
    39   21   49 1
    40   21   50 1
    41   22   26 2
    42   22   23 1
    43   23   24 2
    44   23   51 1
    45   24   25 1
    46   25   26 1
    47   25   27 1
    48   26   52 1
    49   27   28 1
    50   27   53 1
    51   27   54 1
    52   28   33 ar
    53   28   29 ar
    54   29   30 ar
    55   29   55 1
    56   30   31 ar
    57   30   56 1
    58   31   32 ar
    59   31   57 1
    60   32   33 ar
    61   32   58 1
    62   33   59 1
@<TRIPOS>MOLECULE
ZINC35868764
   59    60     0     0     0
SMALL
USER_CHARGES

@<TRIPOS>ATOM
      1 C1          2.0124    0.7847    0.5176 C.3       1 <0>        -0.1663
      2 C2          1.9585   -0.7295    0.3054 C.3       1 <0>         0.0854
      3 N1          2.2366   -1.0358   -1.1000 N.pl3     1 <0>        -0.4016
      4 C3          1.3167   -1.1231   -2.0717 C.2       1 <0>         0.1543
      5 C4          1.9635   -1.4281   -3.2595 C.2       1 <0>        -0.2784
      6 C5          3.3444   -1.5250   -2.9651 C.2       1 <0>        -0.0104
      7 C6          3.4859   -1.2738   -1.6326 C.2       1 <0>        -0.0535
      8 C7          4.7513   -1.2627   -0.8910 C.2       1 <0>         0.5347
      9 O1          5.7970   -1.4880   -1.4693 O.2       1 <0>        -0.4899
     10 O2          4.7551   -1.0026    0.4324 O.3       1 <0>        -0.3569
     11 C8          6.0232   -1.0081    1.0910 C.3       1 <0>         0.0340
     12 C9          4.4492   -1.8397   -3.9405 C.3       1 <0>        -0.1129
     13 C10         1.3360   -1.6154   -4.5713 C.2       1 <0>         0.4100
     14 O3          0.1282   -1.5726   -4.6777 O.2       1 <0>        -0.4502
     15 C11         2.1913   -1.8612   -5.7875 C.3       1 <0>         0.0553
     16 N2          1.3435   -1.8967   -6.9817 N.am      1 <0>        -0.5906
     17 C12         0.9539   -0.6477   -7.6409 C.3       1 <0>         0.1254
     18 C13         1.9199   -0.3551   -8.7907 C.3       1 <0>        -0.1143
     19 C14         1.4419    0.8802   -9.5566 C.3       1 <0>        -0.1450
     20 C15         3.3190   -0.0965   -8.2281 C.3       1 <0>        -0.1510
     21 C16         0.9218   -3.0784   -7.4739 C.2       1 <0>         0.5684
     22 O4          0.2939   -3.1143   -8.5142 O.2       1 <0>        -0.5136
     23 C17         1.2229   -4.3306   -6.7489 C.ar      1 <0>        -0.1140
     24 C18         0.9688   -4.4257   -5.3792 C.ar      1 <0>        -0.0851
     25 C19         1.2516   -5.5962   -4.7076 C.ar      1 <0>        -0.0987
     26 C20         1.7872   -6.6769   -5.3885 C.ar      1 <0>        -0.0121
     27 C21         2.0418   -6.5891   -6.7480 C.ar      1 <0>        -0.0355
     28 C22         1.7569   -5.4245   -7.4320 C.ar      1 <0>        -0.0491
     29 Cl1         2.7132   -7.9486   -7.5935 Cl        1 <0>        -0.0361
     30 Cl2         2.1416   -8.1469   -4.5356 Cl        1 <0>        -0.0379
     31 C23        -0.1674   -0.9241   -1.9016 C.3       1 <0>        -0.1051
     32 H1          3.0039    1.1534    0.2547 H         1 <0>         0.0659
     33 H2          1.2662    1.2669   -0.1138 H         1 <0>         0.0628
     34 H3          1.8055    1.0126    1.5633 H         1 <0>         0.0819
     35 H4          2.7048   -1.2117    0.9368 H         1 <0>         0.1115
     36 H5          0.9671   -1.0982    0.5683 H         1 <0>         0.0980
     37 H6          5.8842   -0.7850    2.1488 H         1 <0>         0.1043
     38 H7          6.4838   -1.9902    0.9842 H         1 <0>         0.0637
     39 H8          6.6690   -0.2532    0.6423 H         1 <0>         0.0636
     40 H9          4.8502   -0.9113   -4.3471 H         1 <0>         0.0824
     41 H10         5.2422   -2.3843   -3.4279 H         1 <0>         0.0896
     42 H11         4.0543   -2.4511   -4.7518 H         1 <0>         0.0727
     43 H12         2.9231   -1.0592   -5.8852 H         1 <0>         0.1214
     44 H13         2.7091   -2.8144   -5.6810 H         1 <0>         0.1204
     45 H14        -0.0587   -0.7441   -8.0327 H         1 <0>         0.0865
     46 H15         0.9884    0.1695   -6.9204 H         1 <0>         0.0797
     47 H16         1.9520   -1.2108   -9.4651 H         1 <0>         0.0787
     48 H17         1.4099    1.7359   -8.8822 H         1 <0>         0.0555
     49 H18         2.1301    1.0887  -10.3757 H         1 <0>         0.0590
     50 H19         0.4452    0.6960   -9.9574 H         1 <0>         0.0580
     51 H20         4.0072    0.1120   -9.0472 H         1 <0>         0.0580
     52 H21         3.2870    0.7592   -7.5537 H         1 <0>         0.0551
     53 H22         3.6596   -0.9765   -7.6825 H         1 <0>         0.0546
     54 H23         0.5519   -3.5837   -4.8467 H         1 <0>         0.1492
     55 H24         1.0553   -5.6704   -3.6481 H         1 <0>         0.1491
     56 H25         1.9513   -5.3581   -8.4922 H         1 <0>         0.1522
     57 H26        -0.4133    0.1265   -2.0566 H         1 <0>         0.0878
     58 H27        -0.7016   -1.5336   -2.6304 H         1 <0>         0.1058
     59 H28        -0.4608   -1.2211   -0.8947 H         1 <0>         0.0732
@<TRIPOS>BOND
     1    1    2 1
     2    1   32 1
     3    1   33 1
     4    1   34 1
     5    2    3 1
     6    2   35 1
     7    2   36 1
     8    3    7 1
     9    3    4 1
    10    4    5 2
    11    4   31 1
    12    5    6 1
    13    5   13 1
    14    6    7 2
    15    6   12 1
    16    7    8 1
    17    8    9 2
    18    8   10 1
    19   10   11 1
    20   11   37 1
    21   11   38 1
    22   11   39 1
    23   12   40 1
    24   12   41 1
    25   12   42 1
    26   13   14 2
    27   13   15 1
    28   15   16 1
    29   15   43 1
    30   15   44 1
    31   16   17 1
    32   16   21 am
    33   17   18 1
    34   17   45 1
    35   17   46 1
    36   18   19 1
    37   18   20 1
    38   18   47 1
    39   19   48 1
    40   19   49 1
    41   19   50 1
    42   20   51 1
    43   20   52 1
    44   20   53 1
    45   21   22 2
    46   21   23 1
    47   23   28 ar
    48   23   24 ar
    49   24   25 ar
    50   24   54 1
    51   25   26 ar
    52   25   55 1
    53   26   27 ar
    54   26   30 1
    55   27   28 ar
    56   27   29 1
    57   28   56 1
    58   31   57 1
    59   31   58 1
    60   31   59 1
@<TRIPOS>MOLECULE
ZINC48325840
   49    52     0     0     0
SMALL
USER_CHARGES

@<TRIPOS>ATOM
      1 C1         -0.0157    1.3058    0.0092 C.2       1 <0>        -0.1459
      2 C2          0.0021   -0.0041    0.0020 C.2       1 <0>        -0.1892
      3 C3         -1.2926   -0.7753    0.0102 C.3       1 <0>         0.1332
      4 N1         -1.3176   -1.6997   -1.1260 N.pl3     1 <0>        -0.4516
      5 C4         -1.7927   -1.4476   -2.3943 C.2       1 <0>         0.2607
      6 N2         -1.6224   -2.5478   -3.0944 N.2       1 <0>        -0.2500
      7 N3         -1.0822   -3.4546   -2.3615 N.2       1 <0>        -0.2851
      8 C5         -0.8689   -2.9905   -1.1508 C.2       1 <0>         0.1666
      9 S1         -0.1430   -3.8702    0.1923 S.3       1 <0>         0.0037
     10 C6          0.2214   -5.5065   -0.5007 C.3       1 <0>        -0.0517
     11 C7          0.8545   -6.3712    0.5589 C.ar      1 <0>        -0.1208
     12 C8          2.2285   -6.3794    0.7129 C.ar      1 <0>        -0.0549
     13 C9          2.8113   -7.1715    1.6832 C.ar      1 <0>        -0.1491
     14 C10         2.0166   -7.9587    2.5038 C.ar      1 <0>         0.1445
     15 C11         0.6381   -7.9483    2.3476 C.ar      1 <0>        -0.2076
     16 C12         0.0599   -7.1505    1.3792 C.ar      1 <0>        -0.0530
     17 O1          2.5875   -8.7391    3.4587 O.3       1 <0>        -0.3110
     18 C13         1.7078   -9.5233    4.2670 C.3       1 <0>         0.1133
     19 C14         2.5142  -10.3173    5.2622 C.ar      1 <0>         0.1198
     20 C15         3.8912  -10.1974    5.2766 C.ar      1 <0>        -0.1497
     21 C16         4.6235  -10.9323    6.1961 C.ar      1 <0>        -0.0739
     22 C17         3.9405  -11.7640    7.0705 C.ar      1 <0>        -0.1711
     23 C18         2.5623  -11.8323    6.9969 C.ar      1 <0>         0.1049
     24 N4          1.8976  -11.1144    6.1125 N.ar      1 <0>        -0.4805
     25 C19        -2.3800   -0.1871   -2.8742 C.2       1 <0>         0.0396
     26 C20        -2.5879    0.1539   -4.1771 C.2       1 <0>        -0.1340
     27 C21        -3.1665    1.4378   -4.1726 C.2       1 <0>        -0.2101
     28 C22        -3.2828    1.8150   -2.8838 C.2       1 <0>        -0.0162
     29 O2         -2.8117    0.8295   -2.1019 O.3       1 <0>        -0.1751
     30 H1          0.9122    1.8585    0.0033 H         1 <0>         0.1097
     31 H2         -0.9582    1.8330    0.0166 H         1 <0>         0.1032
     32 H3          0.9446   -0.5313   -0.0098 H         1 <0>         0.1206
     33 H4         -1.3737   -1.3393    0.9394 H         1 <0>         0.1096
     34 H5         -2.1295   -0.0812   -0.0676 H         1 <0>         0.1086
     35 H6         -0.7036   -5.9703   -0.8432 H         1 <0>         0.1062
     36 H7          0.9076   -5.4007   -1.3410 H         1 <0>         0.1069
     37 H8          2.8467   -5.7664    0.0738 H         1 <0>         0.1354
     38 H9          3.8846   -7.1781    1.8026 H         1 <0>         0.1361
     39 H10         0.0173   -8.5603    2.9851 H         1 <0>         0.1340
     40 H11        -1.0135   -7.1387    1.2601 H         1 <0>         0.1314
     41 H12         1.0200   -8.8658    4.7987 H         1 <0>         0.0882
     42 H13         1.1415  -10.2046    3.6320 H         1 <0>         0.0884
     43 H14         4.3901   -9.5399    4.5802 H         1 <0>         0.1446
     44 H15         5.7005  -10.8590    6.2303 H         1 <0>         0.1381
     45 H16         4.4789  -12.3513    7.7996 H         1 <0>         0.1384
     46 H17         2.0230  -12.4776    7.6744 H         1 <0>         0.1613
     47 H18        -2.3540   -0.4445   -5.0451 H         1 <0>         0.1619
     48 H19        -3.4613    2.0120   -5.0385 H         1 <0>         0.1594
     49 H20        -3.6906    2.7530   -2.5370 H         1 <0>         0.2124
@<TRIPOS>BOND
     1    1    2 2
     2    1   30 1
     3    1   31 1
     4    2    3 1
     5    2   32 1
     6    3    4 1
     7    3   33 1
     8    3   34 1
     9    4    8 1
    10    4    5 1
    11    5    6 2
    12    5   25 1
    13    6    7 1
    14    7    8 2
    15    8    9 1
    16    9   10 1
    17   10   11 1
    18   10   35 1
    19   10   36 1
    20   11   16 ar
    21   11   12 ar
    22   12   13 ar
    23   12   37 1
    24   13   14 ar
    25   13   38 1
    26   14   15 ar
    27   14   17 1
    28   15   16 ar
    29   15   39 1
    30   16   40 1
    31   17   18 1
    32   18   19 1
    33   18   41 1
    34   18   42 1
    35   19   24 ar
    36   19   20 ar
    37   20   21 ar
    38   20   43 1
    39   21   22 ar
    40   21   44 1
    41   22   23 ar
    42   22   45 1
    43   23   24 ar
    44   23   46 1
    45   25   29 1
    46   25   26 2
    47   26   27 1
    48   26   47 1
    49   27   28 2
    50   27   48 1
    51   28   29 1
    52   28   49 1
@<TRIPOS>MOLECULE
ZINC06734119
   53    53     0     0     0
SMALL
USER_CHARGES
ethyl 4-[2-(allyl-(2-chloropropanoyl)amino)propanoyl]-1,3,5-trimethyl-pyrrole-2-carboxylate
@<TRIPOS>ATOM
      1 C1        -10.4849    1.1921    8.0409 C.3       1 <0>        -0.1537
      2 C2         -9.0888    1.7763    7.8163 C.3       1 <0>         0.0632
      3 O1         -8.3537    0.9317    6.8919 O.3       1 <0>        -0.3627
      4 C3         -7.0957    1.3094    6.5855 C.2       1 <0>         0.5386
      5 O2         -6.6266    2.3174    7.0779 O.2       1 <0>        -0.4934
      6 C4         -6.2936    0.5043    5.6583 C.2       1 <0>        -0.0508
      7 C5         -5.0135    0.7709    5.2723 C.2       1 <0>        -0.0176
      8 C6         -4.6308   -0.2538    4.3743 C.2       1 <0>        -0.2634
      9 C7         -5.7101   -1.1166    4.2606 C.2       1 <0>         0.1166
     10 N1         -6.7034   -0.6548    5.0339 N.pl3     1 <0>        -0.4044
     11 C8         -8.0175   -1.2832    5.1911 C.3       1 <0>         0.0591
     12 C9         -5.7587   -2.3613    3.4125 C.3       1 <0>        -0.0992
     13 C10        -3.3364   -0.3821    3.6976 C.2       1 <0>         0.4375
     14 O3         -2.4544   -1.0490    4.1968 O.2       1 <0>        -0.4321
     15 C11        -3.1016    0.3144    2.3820 C.3       1 <0>         0.1139
     16 H1         -3.9169    0.2287    1.8093 H         1 <0>         0.1149
     17 C12        -2.8086    1.7948    2.6339 C.3       1 <0>        -0.1564
     18 N2         -1.9595   -0.3004    1.7010 N.am      1 <0>        -0.5919
     19 C13        -0.6411   -0.3043    2.3396 C.3       1 <0>         0.1254
     20 C14         0.1732    0.8514    1.8179 C.2       1 <0>        -0.1860
     21 C15         0.6953    1.7148    2.6533 C.2       1 <0>        -0.1658
     22 C16        -2.1218   -0.8625    0.4868 C.2       1 <0>         0.5170
     23 O4         -3.1915   -0.7847   -0.0794 O.2       1 <0>        -0.5150
     24 C17        -0.9741   -1.5878   -0.1672 C.3       1 <0>        -0.0317
     25 H2         -0.2115   -1.8093    0.5794 H         1 <0>         0.1215
     26 C18        -1.4804   -2.8942   -0.7821 C.3       1 <0>        -0.1494
     27 Cl1        -0.2658   -0.5498   -1.4601 Cl        1 <0>        -0.1365
     28 C19        -4.1682    1.9375    5.7145 C.3       1 <0>        -0.0972
     29 H3        -10.3962    0.1887    8.4574 H         1 <0>         0.0668
     30 H4        -11.0368    1.8261    8.7348 H         1 <0>         0.0829
     31 H5        -11.0164    1.1452    7.0903 H         1 <0>         0.0667
     32 H6         -8.5574    1.8232    8.7668 H         1 <0>         0.0728
     33 H7         -9.1775    2.7796    7.3997 H         1 <0>         0.0730
     34 H8         -7.9851   -1.9906    6.0197 H         1 <0>         0.0839
     35 H9         -8.7645   -0.5166    5.3968 H         1 <0>         0.1049
     36 H10        -8.2804   -1.8098    4.2737 H         1 <0>         0.0910
     37 H11        -5.4123   -3.2133    3.9975 H         1 <0>         0.0871
     38 H12        -6.7831   -2.5380    3.0847 H         1 <0>         0.0791
     39 H13        -5.1156   -2.2330    2.5418 H         1 <0>         0.0860
     40 H14        -2.5295    2.2747    1.6959 H         1 <0>         0.0772
     41 H15        -3.6982    2.2776    3.0385 H         1 <0>         0.0800
     42 H16        -1.9892    1.8869    3.3469 H         1 <0>         0.0676
     43 H17        -0.7598   -0.2072    3.4188 H         1 <0>         0.1075
     44 H18        -0.1304   -1.2402    2.1131 H         1 <0>         0.0877
     45 H19         0.3264    0.9679    0.7551 H         1 <0>         0.1150
     46 H20         1.2789    2.5431    2.2794 H         1 <0>         0.1026
     47 H21         0.5422    1.5984    3.7161 H         1 <0>         0.0990
     48 H22        -0.6503   -3.4188   -1.2552 H         1 <0>         0.0808
     49 H23        -1.9086   -3.5217   -0.0005 H         1 <0>         0.0764
     50 H24        -2.2430   -2.6727   -1.5288 H         1 <0>         0.0822
     51 H25        -4.3964    2.8063    5.0972 H         1 <0>         0.0787
     52 H26        -4.3830    2.1668    6.7582 H         1 <0>         0.0850
     53 H27        -3.1137    1.6830    5.6081 H         1 <0>         0.0654
@<TRIPOS>BOND
     1    1    2 1
     2    1   29 1
     3    1   30 1
     4    1   31 1
     5    2    3 1
     6    2   32 1
     7    2   33 1
     8    3    4 1
     9    4    5 2
    10    4    6 1
    11    6   10 1
    12    6    7 2
    13    7    8 1
    14    7   28 1
    15    8    9 2
    16    8   13 1
    17    9   10 1
    18    9   12 1
    19   10   11 1
    20   11   34 1
    21   11   35 1
    22   11   36 1
    23   12   37 1
    24   12   38 1
    25   12   39 1
    26   13   14 2
    27   13   15 1
    28   15   16 1
    29   15   17 1
    30   15   18 1
    31   17   40 1
    32   17   41 1
    33   17   42 1
    34   18   19 1
    35   18   22 am
    36   19   20 1
    37   19   43 1
    38   19   44 1
    39   20   21 2
    40   20   45 1
    41   21   46 1
    42   21   47 1
    43   22   23 2
    44   22   24 1
    45   24   25 1
    46   24   26 1
    47   24   27 1
    48   26   48 1
    49   26   49 1
    50   26   50 1
    51   28   51 1
    52   28   52 1
    53   28   53 1
@<TRIPOS>MOLECULE
ZINC06224520
   56    57     0     0     0
SMALL
USER_CHARGES

@<TRIPOS>ATOM
      1 C1          0.7810   -2.1932   -2.2227 C.3       1 <0>        -0.1629
      2 C2          0.0246   -0.8655   -2.1451 C.3       1 <0>        -0.1375
      3 C3          0.4582   -0.1041   -0.8909 C.3       1 <0>         0.1257
      4 H1          0.2235   -0.6968   -0.0067 H         1 <0>         0.0961
      5 C4         -0.2859    1.2310   -0.8220 C.3       1 <0>        -0.1608
      6 N1          1.9012    0.1433   -0.9441 N.am      1 <0>        -0.5855
      7 C5          2.4583    1.0070   -1.9881 C.3       1 <0>         0.1021
      8 C6          2.6167    2.4061   -1.4511 C.2       1 <0>         0.5014
      9 O1          2.3874    2.6367   -0.2827 O.2       1 <0>        -0.5203
     10 N2          3.0131    3.4011   -2.2692 N.am      1 <0>        -0.5991
     11 C7          3.2901    3.1224   -3.6806 C.3       1 <0>         0.1072
     12 C8          2.0096    3.3063   -4.4975 C.3       1 <0>         0.0410
     13 O2          1.6098    4.6776   -4.4543 O.3       1 <0>        -0.3844
     14 C9          0.4174    4.9588   -5.1900 C.3       1 <0>         0.0316
     15 C10         3.1671    4.7612   -1.7472 C.3       1 <0>         0.1908
     16 C11         4.5761    4.9509   -1.2474 C.2       1 <0>        -0.0085
     17 C12         5.5966    5.4896   -1.9452 C.2       1 <0>        -0.1863
     18 C13         6.7311    5.4784   -1.1098 C.2       1 <0>        -0.2052
     19 C14         6.3606    4.9332    0.0667 C.2       1 <0>        -0.0114
     20 N3          5.0376    4.6128   -0.0098 N.pl3     1 <0>        -0.4332
     21 C15         4.2439    4.0026    1.0597 C.3       1 <0>         0.0800
     22 C16         2.7162   -0.4236   -0.0326 C.2       1 <0>         0.6149
     23 O3          3.8970   -0.1301   -0.0061 O.2       1 <0>        -0.5177
     24 C17         2.1803   -1.3937    0.9268 C.2       1 <0>        -0.2590
     25 C18         2.7145   -1.8142    2.1353 C.2       1 <0>        -0.0640
     26 C19         1.9744   -2.7457    2.8232 C.2       1 <0>        -0.1831
     27 C20         0.8049   -3.1808    2.2926 C.2       1 <0>        -0.2496
     28 S1          0.6682   -2.3346    0.8477 S.3       1 <0>         0.2279
     29 H2          1.8465   -1.9978   -2.3432 H         1 <0>         0.0562
     30 H3          0.6168   -2.7590   -1.3056 H         1 <0>         0.0636
     31 H4          0.4185   -2.7686   -3.0745 H         1 <0>         0.0639
     32 H5          0.2485   -0.2676   -3.0286 H         1 <0>         0.0695
     33 H6         -1.0469   -1.0599   -2.0999 H         1 <0>         0.0831
     34 H7         -1.3525    1.0463   -0.6936 H         1 <0>         0.0709
     35 H8          0.0865    1.8115    0.0221 H         1 <0>         0.0749
     36 H9         -0.1220    1.7864   -1.7455 H         1 <0>         0.0557
     37 H10         3.4311    0.6236   -2.2960 H         1 <0>         0.1108
     38 H11         1.7853    1.0209   -2.8455 H         1 <0>         0.1072
     39 H12         4.0544    3.8097   -4.0434 H         1 <0>         0.0971
     40 H13         3.6441    2.0969   -3.7858 H         1 <0>         0.0940
     41 H14         2.1930    3.0138   -5.5314 H         1 <0>         0.0639
     42 H15         1.2188    2.6839   -4.0787 H         1 <0>         0.0490
     43 H16         0.5679    4.7006   -6.2382 H         1 <0>         0.0424
     44 H17        -0.4063    4.3707   -4.7855 H         1 <0>         0.0400
     45 H18         0.1813    6.0198   -5.1074 H         1 <0>         0.0874
     46 H19         2.9631    5.4802   -2.5406 H         1 <0>         0.1079
     47 H20         2.4666    4.9170   -0.9268 H         1 <0>         0.0840
     48 H21         5.5525    5.8611   -2.9583 H         1 <0>         0.1324
     49 H22         7.7164    5.8396   -1.3648 H         1 <0>         0.1333
     50 H23         7.0006    4.7806    0.9232 H         1 <0>         0.1578
     51 H24         4.2963    2.9170    0.9769 H         1 <0>         0.0776
     52 H25         4.6387    4.3126    2.0273 H         1 <0>         0.0697
     53 H26         3.2062    4.3241    0.9708 H         1 <0>         0.0890
     54 H27         3.6527   -1.4342    2.5118 H         1 <0>         0.1475
     55 H28         2.3197   -3.1262    3.7732 H         1 <0>         0.1357
     56 H29         0.1164   -3.9026    2.7065 H         1 <0>         0.1852
@<TRIPOS>BOND
     1    1    2 1
     2    1   29 1
     3    1   30 1
     4    1   31 1
     5    2    3 1
     6    2   32 1
     7    2   33 1
     8    3    4 1
     9    3    5 1
    10    3    6 1
    11    5   34 1
    12    5   35 1
    13    5   36 1
    14    6    7 1
    15    6   22 am
    16    7    8 1
    17    7   37 1
    18    7   38 1
    19    8    9 2
    20    8   10 am
    21   10   11 1
    22   10   15 1
    23   11   12 1
    24   11   39 1
    25   11   40 1
    26   12   13 1
    27   12   41 1
    28   12   42 1
    29   13   14 1
    30   14   43 1
    31   14   44 1
    32   14   45 1
    33   15   16 1
    34   15   46 1
    35   15   47 1
    36   16   20 1
    37   16   17 2
    38   17   18 1
    39   17   48 1
    40   18   19 2
    41   18   49 1
    42   19   20 1
    43   19   50 1
    44   20   21 1
    45   21   51 1
    46   21   52 1
    47   21   53 1
    48   22   23 2
    49   22   24 1
    50   24   28 1
    51   24   25 2
    52   25   26 1
    53   25   54 1
    54   26   27 2
    55   26   55 1
    56   27   28 1
    57   27   56 1
@<TRIPOS>MOLECULE
ZINC39748679
   54    56     0     0     0
SMALL
USER_CHARGES

@<TRIPOS>ATOM
      1 C1         -0.0140    1.5451    0.0787 C.3       1 <0>        -0.1453
      2 C2          0.0047    0.0191   -0.0301 C.3       1 <0>        -0.1111
      3 C3          0.7918   -0.5663    1.1440 C.3       1 <0>        -0.1532
      4 C4         -1.4298   -0.5121    0.0021 C.3       1 <0>         0.1067
      5 N1         -1.4206   -1.9578   -0.2346 N.pl3     1 <0>        -0.4427
      6 C5         -1.3914   -2.5965   -1.4435 C.2       1 <0>         0.1985
      7 N2         -1.3927   -3.8776   -1.2055 N.2       1 <0>        -0.2781
      8 N3         -1.4204   -4.0909    0.0616 N.2       1 <0>        -0.2882
      9 C6         -1.4333   -2.9473    0.7062 C.2       1 <0>         0.1593
     10 S1         -1.4646   -2.7303    2.4545 S.3       1 <0>         0.0181
     11 C7         -1.4697   -4.4230    3.1067 C.3       1 <0>        -0.1106
     12 C8         -1.4965   -4.3803    4.6359 C.3       1 <0>         0.0786
     13 O1         -1.5005   -5.7137    5.1497 O.3       1 <0>        -0.3078
     14 C9         -1.5236   -5.8540    6.5012 C.ar      1 <0>         0.1285
     15 C10        -1.5477   -4.7315    7.3161 C.ar      1 <0>        -0.2091
     16 C11        -1.5716   -4.8768    8.6896 C.ar      1 <0>        -0.0800
     17 C12        -1.5710   -6.1397    9.2525 C.ar      1 <0>        -0.1568
     18 C13        -1.5465   -7.2601    8.4426 C.ar      1 <0>        -0.0797
     19 C14        -1.5288   -7.1201    7.0684 C.ar      1 <0>        -0.1499
     20 C15        -1.3636   -1.9402   -2.7998 C.3       1 <0>         0.1397
     21 N4         -2.7353   -1.6208   -3.2175 N.3       1 <0>        -0.5363
     22 C16        -3.4763   -2.8406   -3.5699 C.3       1 <0>         0.0170
     23 C17        -4.9143   -2.4685   -3.9407 C.3       1 <0>         0.0650
     24 O2         -4.8951   -1.5189   -5.0098 O.3       1 <0>        -0.3831
     25 C18        -4.1821   -0.3182   -4.7007 C.3       1 <0>         0.0642
     26 C19        -2.7367   -0.6685   -4.3376 C.3       1 <0>         0.0180
     27 H1          1.0080    1.9235    0.0558 H         1 <0>         0.0661
     28 H2         -0.5747    1.9622   -0.7578 H         1 <0>         0.0599
     29 H3         -0.4885    1.8368    1.0157 H         1 <0>         0.0617
     30 H4          0.4792   -0.2725   -0.9671 H         1 <0>         0.0763
     31 H5          0.3173   -0.2747    2.0810 H         1 <0>         0.0640
     32 H6          0.8051   -1.6535    1.0665 H         1 <0>         0.0554
     33 H7          1.8138   -0.1879    1.1211 H         1 <0>         0.0627
     34 H8         -1.8716   -0.3063    0.9770 H         1 <0>         0.0995
     35 H9         -2.0167   -0.0206   -0.7739 H         1 <0>         0.1060
     36 H10        -2.3515   -4.9501    2.7425 H         1 <0>         0.1087
     37 H11        -0.5718   -4.9435    2.7735 H         1 <0>         0.1091
     38 H12        -0.6147   -3.8532    5.0002 H         1 <0>         0.0750
     39 H13        -2.3944   -3.8598    4.9691 H         1 <0>         0.0748
     40 H14        -1.5475   -3.7448    6.8769 H         1 <0>         0.1274
     41 H15        -1.5904   -4.0032    9.3244 H         1 <0>         0.1259
     42 H16        -1.5893   -6.2512   10.3265 H         1 <0>         0.1249
     43 H17        -1.5457   -8.2455    8.8846 H         1 <0>         0.1308
     44 H18        -1.5141   -7.9956    6.4361 H         1 <0>         0.1319
     45 H19        -0.7768   -1.0231   -2.7477 H         1 <0>         0.0969
     46 H20        -0.9125   -2.6196   -3.5230 H         1 <0>         0.0790
     47 H21        -2.9954   -3.3261   -4.4191 H         1 <0>         0.0513
     48 H22        -3.4844   -3.5205   -2.7179 H         1 <0>         0.0908
     49 H23        -5.4514   -3.3625   -4.2575 H         1 <0>         0.1013
     50 H24        -5.4121   -2.0318   -3.0749 H         1 <0>         0.0582
     51 H25        -4.1897    0.3429   -5.5672 H         1 <0>         0.1015
     52 H26        -4.6586    0.1810   -3.8570 H         1 <0>         0.0597
     53 H27        -2.2049    0.2372   -4.0460 H         1 <0>         0.0889
     54 H28        -2.2440   -1.1193   -5.1991 H         1 <0>         0.0505
@<TRIPOS>BOND
     1    1    2 1
     2    1   27 1
     3    1   28 1
     4    1   29 1
     5    2    3 1
     6    2    4 1
     7    2   30 1
     8    3   31 1
     9    3   32 1
    10    3   33 1
    11    4    5 1
    12    4   34 1
    13    4   35 1
    14    5    9 1
    15    5    6 1
    16    6    7 2
    17    6   20 1
    18    7    8 1
    19    8    9 2
    20    9   10 1
    21   10   11 1
    22   11   12 1
    23   11   36 1
    24   11   37 1
    25   12   13 1
    26   12   38 1
    27   12   39 1
    28   13   14 1
    29   14   19 ar
    30   14   15 ar
    31   15   16 ar
    32   15   40 1
    33   16   17 ar
    34   16   41 1
    35   17   18 ar
    36   17   42 1
    37   18   19 ar
    38   18   43 1
    39   19   44 1
    40   20   21 1
    41   20   45 1
    42   20   46 1
    43   21   26 1
    44   21   22 1
    45   22   23 1
    46   22   47 1
    47   22   48 1
    48   23   24 1
    49   23   49 1
    50   23   50 1
    51   24   25 1
    52   25   26 1
    53   25   51 1
    54   25   52 1
    55   26   53 1
    56   26   54 1
@<TRIPOS>MOLECULE
ZINC58622538
   46    47     0     0     0
SMALL
USER_CHARGES

@<TRIPOS>ATOM
      1 C1         -0.0187    1.5258    0.0104 C.3       1 <0>        -0.1546
      2 C2          0.0021   -0.0041    0.0020 C.3       1 <0>        -0.1217
      3 C3         -1.4333   -0.5336    0.0129 C.3       1 <0>        -0.1178
      4 C4         -1.4126   -2.0635    0.0045 C.3       1 <0>        -0.0387
      5 C5         -2.8264   -2.5851    0.0152 C.2       1 <0>         0.2551
      6 N1         -3.5475   -2.8552    1.1091 N.2       1 <0>        -0.5141
      7 C6         -4.7294   -3.2899    0.7700 C.2       1 <0>         0.2959
      8 O1         -4.8007   -3.3114   -0.5668 O.3       1 <0>        -0.0954
      9 N2         -3.5469   -2.8410   -1.0388 N.2       1 <0>        -0.3200
     10 C7         -5.8261   -3.6980    1.7196 C.3       1 <0>        -0.5047
     11 C8         -5.9361   -5.2239    1.7463 C.3       1 <0>        -0.1484
     12 S1         -7.4008   -2.9879    1.1657 S.o2      1 <0>         2.4122
     13 O2         -7.3163   -1.5731    1.2672 O.2       1 <0>        -0.9111
     14 O3         -7.7423   -3.5719   -0.0839 O.2       1 <0>        -0.8894
     15 C9         -8.5713   -3.5841    2.4167 C.3       1 <0>        -0.5251
     16 C10        -9.9524   -3.0731    2.0963 C.2       1 <0>         0.0569
     17 C11       -10.3996   -1.8856    2.5790 C.2       1 <0>        -0.2122
     18 S2        -12.0400   -1.8410    1.8750 S.3       1 <0>         0.1392
     19 C12       -11.9806   -3.3111    1.0577 C.2       1 <0>         0.0719
     20 N3        -10.7794   -3.7561    1.3302 N.2       1 <0>        -0.5057
     21 C13       -13.0486   -3.9562    0.2124 C.3       1 <0>        -0.0106
     22 C14       -14.2975   -4.1949    1.0634 C.3       1 <0>        -0.1485
     23 C15       -13.3977   -3.0354   -0.9585 C.3       1 <0>        -0.1513
     24 H1          1.0039    1.9031    0.0027 H         1 <0>         0.0576
     25 H2         -0.5459    1.8868   -0.8726 H         1 <0>         0.0550
     26 H3         -0.5289    1.8773    0.9072 H         1 <0>         0.0555
     27 H4          0.5123   -0.3556   -0.8948 H         1 <0>         0.0660
     28 H5          0.5293   -0.3651    0.8851 H         1 <0>         0.0671
     29 H6         -1.9435   -0.1821    0.9097 H         1 <0>         0.0731
     30 H7         -1.9605   -0.1726   -0.8702 H         1 <0>         0.0693
     31 H8         -0.9024   -2.4150   -0.8923 H         1 <0>         0.0997
     32 H9         -0.8854   -2.4246    0.8875 H         1 <0>         0.1055
     33 H10        -5.5949   -3.3329    2.7202 H         1 <0>         0.1808
     34 H11        -6.1673   -5.5890    0.7456 H         1 <0>         0.0912
     35 H12        -4.9899   -5.6505    2.0791 H         1 <0>         0.0931
     36 H13        -6.7293   -5.5190    2.4331 H         1 <0>         0.0953
     37 H14        -8.5783   -4.6741    2.4176 H         1 <0>         0.1581
     38 H15        -8.2688   -3.2219    3.3992 H         1 <0>         0.1544
     39 H16        -9.9014   -1.1671    3.2130 H         1 <0>         0.2066
     40 H17       -12.6826   -4.9086   -0.1709 H         1 <0>         0.1081
     41 H18       -14.6635   -3.2425    1.4467 H         1 <0>         0.0614
     42 H19       -15.0700   -4.6615    0.4520 H         1 <0>         0.0756
     43 H20       -14.0488   -4.8509    1.8976 H         1 <0>         0.0623
     44 H21       -12.5080   -2.8653   -1.5648 H         1 <0>         0.0647
     45 H22       -14.1702   -3.5019   -1.5699 H         1 <0>         0.0761
     46 H23       -13.7637   -2.0829   -0.5752 H         1 <0>         0.0616
@<TRIPOS>BOND
     1    1    2 1
     2    1   24 1
     3    1   25 1
     4    1   26 1
     5    2    3 1
     6    2   27 1
     7    2   28 1
     8    3    4 1
     9    3   29 1
    10    3   30 1
    11    4    5 1
    12    4   31 1
    13    4   32 1
    14    5    9 2
    15    5    6 1
    16    6    7 2
    17    7    8 1
    18    7   10 1
    19    8    9 1
    20   10   11 1
    21   10   12 1
    22   10   33 1
    23   11   34 1
    24   11   35 1
    25   11   36 1
    26   12   13 2
    27   12   14 2
    28   12   15 1
    29   15   16 1
    30   15   37 1
    31   15   38 1
    32   16   20 1
    33   16   17 2
    34   17   18 1
    35   17   39 1
    36   18   19 1
    37   19   20 2
    38   19   21 1
    39   21   22 1
    40   21   23 1
    41   21   40 1
    42   22   41 1
    43   22   42 1
    44   22   43 1
    45   23   44 1
    46   23   45 1
    47   23   46 1
@<TRIPOS>MOLECULE
ZINC64946704
   42    44     0     0     0
SMALL
USER_CHARGES

@<TRIPOS>ATOM
      1 C1         -0.0187    1.5258    0.0104 C.3       1 <0>        -0.1524
      2 C2          0.0021   -0.0041    0.0020 C.3       1 <0>         0.0609
      3 O1          0.6932   -0.4774    1.1597 O.3       1 <0>        -0.3529
      4 C3          0.8006   -1.8076    1.3039 C.2       1 <0>         0.4432
      5 O2          0.3237   -2.5457    0.4746 O.2       1 <0>        -0.4962
      6 C4          1.5162   -2.3806    2.5000 C.3       1 <0>         0.1261
      7 N1          1.4970   -3.8436    2.4260 N.am      1 <0>        -0.5914
      8 C5          2.5800   -4.5567    1.7442 C.3       1 <0>         0.1384
      9 C6          3.6901   -4.8774    2.7471 C.3       1 <0>        -0.1807
     10 C7          5.0580   -4.2317    2.5171 C.3       1 <0>        -0.1760
     11 C8          4.8637   -5.7264    2.2543 C.3       1 <0>        -0.1706
     12 C9          0.4831   -4.5334    2.9850 C.2       1 <0>         0.5620
     13 O3         -0.4177   -3.9402    3.5521 O.2       1 <0>        -0.5354
     14 C10         0.4647   -5.9404    2.9138 C.2       1 <0>        -0.1822
     15 C11        -0.5601   -6.6376    3.4789 C.2       1 <0>         0.0067
     16 C12        -0.5785   -8.0434    3.4077 C.2       1 <0>         0.0090
     17 C13        -0.4006   -8.8147    2.2708 C.2       1 <0>         0.1243
     18 N2         -0.4890  -10.0922    2.6250 N.2       1 <0>        -0.4304
     19 C14        -0.7114  -10.1770    3.9128 C.2       1 <0>         0.1897
     20 N3         -0.7750   -8.9344    4.4784 N.pl3     1 <0>        -0.4117
     21 C15        -0.9981   -8.8733    5.8337 C.2       1 <0>         0.0242
     22 C16        -1.1406   -9.9872    6.5530 C.2       1 <0>        -0.1643
     23 S1         -0.9730  -11.2534    5.3044 S.3       1 <0>         0.1604
     24 Cl1        -0.1134   -8.2175    0.6663 Cl        1 <0>         0.0287
     25 H1          1.0039    1.9031    0.0027 H         1 <0>         0.0672
     26 H2         -0.5459    1.8868   -0.8726 H         1 <0>         0.0803
     27 H3         -0.5289    1.8773    0.9072 H         1 <0>         0.0677
     28 H4         -1.0205   -0.3814    0.0098 H         1 <0>         0.0676
     29 H5          0.5123   -0.3556   -0.8948 H         1 <0>         0.0673
     30 H6          2.5484   -2.0306    2.5079 H         1 <0>         0.1251
     31 H7          1.0156   -2.0564    3.4125 H         1 <0>         0.1296
     32 H8          2.1942   -5.4839    1.3205 H         1 <0>         0.0923
     33 H9          2.9807   -3.9317    0.9462 H         1 <0>         0.0855
     34 H10         3.3661   -5.0168    3.7784 H         1 <0>         0.1097
     35 H11         5.1671   -3.5786    1.6513 H         1 <0>         0.0965
     36 H12         5.6342   -3.9462    3.3972 H         1 <0>         0.0964
     37 H13         5.3119   -6.4242    2.9616 H         1 <0>         0.0979
     38 H14         4.8449   -6.0566    1.2157 H         1 <0>         0.0985
     39 H15         1.2631   -6.4661    2.4112 H         1 <0>         0.1377
     40 H16        -1.3585   -6.1119    3.9815 H         1 <0>         0.1455
     41 H17        -1.0583   -7.9118    6.3217 H         1 <0>         0.1811
     42 H18        -1.3181  -10.0953    7.6128 H         1 <0>         0.2246
@<TRIPOS>BOND
     1    1    2 1
     2    1   25 1
     3    1   26 1
     4    1   27 1
     5    2    3 1
     6    2   28 1
     7    2   29 1
     8    3    4 1
     9    4    5 2
    10    4    6 1
    11    6    7 1
    12    6   30 1
    13    6   31 1
    14    7    8 1
    15    7   12 am
    16    8    9 1
    17    8   32 1
    18    8   33 1
    19    9   11 1
    20    9   10 1
    21    9   34 1
    22   10   11 1
    23   10   35 1
    24   10   36 1
    25   11   37 1
    26   11   38 1
    27   12   13 2
    28   12   14 1
    29   14   15 2
    30   14   39 1
    31   15   16 1
    32   15   40 1
    33   16   20 1
    34   16   17 2
    35   17   18 1
    36   17   24 1
    37   18   19 2
    38   19   23 1
    39   19   20 1
    40   20   21 1
    41   21   22 2
    42   21   41 1
    43   22   23 1
    44   22   42 1
@<TRIPOS>MOLECULE
ZINC35395138
   87    89     0     0     0
SMALL
USER_CHARGES

@<TRIPOS>ATOM
      1 C1          0.1636   -1.1254    1.4253 C.3       1 <0>        -0.1531
      2 C2          0.0079   -2.0022    0.1811 C.3       1 <0>        -0.1241
      3 C3          1.1208   -1.6743   -0.8163 C.3       1 <0>        -0.1470
      4 C4          0.9651   -2.5511   -2.0605 C.3       1 <0>         0.0824
      5 N1          2.0306   -2.2372   -3.0156 N.am      1 <0>        -0.5884
      6 C5          3.4059   -2.6635   -2.7450 C.3       1 <0>         0.0942
      7 C6          3.6666   -3.9816   -3.4275 C.2       1 <0>         0.5120
      8 O1          2.7645   -4.5585   -3.9969 O.2       1 <0>        -0.5168
      9 N2          4.9023   -4.5192   -3.4050 N.am      1 <0>        -0.6039
     10 C7          5.9630   -3.8847   -2.6186 C.3       1 <0>         0.1689
     11 C8          5.9428   -4.4314   -1.2144 C.2       1 <0>        -0.0011
     12 C9          5.2874   -3.8932   -0.1659 C.2       1 <0>        -0.1840
     13 C10         5.5329   -4.7151    0.9518 C.2       1 <0>        -0.1948
     14 C11         6.3290   -5.7242    0.5438 C.2       1 <0>        -0.0052
     15 N3          6.5791   -5.5586   -0.7863 N.pl3     1 <0>        -0.4244
     16 C12         7.3993   -6.4436   -1.6172 C.3       1 <0>         0.1356
     17 C13         8.8155   -5.9295   -1.6524 C.ar      1 <0>        -0.1169
     18 C14         9.2141   -5.0700   -2.6593 C.ar      1 <0>        -0.1004
     19 C15        10.5129   -4.5985   -2.6915 C.ar      1 <0>        -0.1234
     20 C16        11.4135   -4.9861   -1.7167 C.ar      1 <0>        -0.1046
     21 C17        11.0147   -5.8447   -0.7096 C.ar      1 <0>        -0.1203
     22 C18         9.7143   -6.3129   -0.6749 C.ar      1 <0>        -0.0617
     23 C19         9.2781   -7.2448    0.4261 C.3       1 <0>        -0.1292
     24 C20         5.1848   -5.7381   -4.1670 C.3       1 <0>         0.1483
     25 H1          6.2079   -6.0595   -3.9722 H         1 <0>         0.0776
     26 C21         5.0145   -5.4565   -5.6612 C.3       1 <0>        -0.1668
     27 C22         4.2139   -6.8417   -3.7421 C.3       1 <0>        -0.1473
     28 C23         4.4225   -7.1618   -2.2606 C.3       1 <0>        -0.1508
     29 C24         1.7457   -1.5561   -4.1432 C.2       1 <0>         0.5718
     30 O2          2.6189   -1.3438   -4.9622 O.2       1 <0>        -0.5342
     31 C25         0.3737   -1.0680   -4.3839 C.ar      1 <0>        -0.1727
     32 C26        -0.4608   -0.7635   -3.3053 C.ar      1 <0>        -0.0714
     33 C27        -1.7400   -0.3080   -3.5340 C.ar      1 <0>        -0.1618
     34 C28        -2.2016   -0.1514   -4.8357 C.ar      1 <0>         0.1585
     35 C29        -1.3747   -0.4532   -5.9113 C.ar      1 <0>        -0.2184
     36 C30        -0.0922   -0.9038   -5.6910 C.ar      1 <0>        -0.0159
     37 O3         -3.4633    0.2969   -5.0570 O.3       1 <0>        -0.3108
     38 C31        -3.8733    0.4347   -6.4189 C.3       1 <0>         0.0555
     39 C32        -5.3138    0.9479   -6.4685 C.3       1 <0>        -0.1199
     40 C33        -5.7528    1.0955   -7.9267 C.3       1 <0>        -0.1221
     41 C34        -7.1933    1.6086   -7.9763 C.3       1 <0>        -0.1528
     42 H2          1.1326   -1.3173    1.8860 H         1 <0>         0.0552
     43 H3          0.0983   -0.0754    1.1403 H         1 <0>         0.0548
     44 H4         -0.6292   -1.3590    2.1359 H         1 <0>         0.0563
     45 H5          0.0732   -3.0523    0.4661 H         1 <0>         0.0669
     46 H6         -0.9611   -1.8104   -0.2796 H         1 <0>         0.0655
     47 H7          1.0555   -0.6243   -1.1014 H         1 <0>         0.0729
     48 H8          2.0898   -1.8662   -0.3556 H         1 <0>         0.0731
     49 H9          1.0304   -3.6012   -1.7755 H         1 <0>         0.0782
     50 H10        -0.0040   -2.3593   -2.5212 H         1 <0>         0.1093
     51 H11         4.1000   -1.9140   -3.1251 H         1 <0>         0.1087
     52 H12         3.5463   -2.7769   -1.6701 H         1 <0>         0.1132
     53 H13         6.9298   -4.0945   -3.0763 H         1 <0>         0.0869
     54 H14         5.8001   -2.8072   -2.5914 H         1 <0>         0.1011
     55 H15         4.6853   -2.9967   -0.1802 H         1 <0>         0.1312
     56 H16         5.1536   -4.5644    1.9517 H         1 <0>         0.1345
     57 H17         6.7007   -6.5273    1.1627 H         1 <0>         0.1604
     58 H18         7.3882   -7.4494   -1.1975 H         1 <0>         0.1000
     59 H19         6.9963   -6.4679   -2.6297 H         1 <0>         0.0998
     60 H20         8.5106   -4.7672   -3.4208 H         1 <0>         0.1204
     61 H21        10.8245   -3.9277   -3.4785 H         1 <0>         0.1252
     62 H22        12.4286   -4.6183   -1.7423 H         1 <0>         0.1249
     63 H23        11.7183   -6.1477    0.0517 H         1 <0>         0.1245
     64 H24         9.5381   -8.2692    0.1594 H         1 <0>         0.0741
     65 H25         9.7814   -6.9720    1.3537 H         1 <0>         0.0724
     66 H26         8.1994   -7.1673    0.5617 H         1 <0>         0.0695
     67 H27         5.6384   -4.6089   -5.9446 H         1 <0>         0.0564
     68 H28         5.3135   -6.3350   -6.2329 H         1 <0>         0.0643
     69 H29         3.9701   -5.2249   -5.8705 H         1 <0>         0.0730
     70 H30         3.1894   -6.5050   -3.9004 H         1 <0>         0.0965
     71 H31         4.3982   -7.7365   -4.3366 H         1 <0>         0.0651
     72 H32         5.4470   -7.4985   -2.1023 H         1 <0>         0.0451
     73 H33         4.2381   -6.2670   -1.6661 H         1 <0>         0.0622
     74 H34         3.7308   -7.9480   -1.9579 H         1 <0>         0.0492
     75 H35        -0.1031   -0.8856   -2.2936 H         1 <0>         0.1596
     76 H36        -2.3856   -0.0724   -2.7009 H         1 <0>         0.1379
     77 H37        -1.7370   -0.3303   -6.9213 H         1 <0>         0.1346
     78 H38         0.5511   -1.1342   -6.5273 H         1 <0>         0.1352
     79 H39        -3.2177    1.1428   -6.9259 H         1 <0>         0.0653
     80 H40        -3.8153   -0.5338   -6.9156 H         1 <0>         0.0652
     81 H41        -5.9694    0.2398   -5.9616 H         1 <0>         0.0749
     82 H42        -5.3718    1.9164   -5.9718 H         1 <0>         0.0749
     83 H43        -5.0972    1.8035   -8.4336 H         1 <0>         0.0654
     84 H44        -5.6948    0.1269   -8.4234 H         1 <0>         0.0653
     85 H45        -7.5060    1.7137   -9.0151 H         1 <0>         0.0579
     86 H46        -7.8489    0.9005   -7.4694 H         1 <0>         0.0563
     87 H47        -7.2513    2.5771   -7.4796 H         1 <0>         0.0563
@<TRIPOS>BOND
     1    1    2 1
     2    1   42 1
     3    1   43 1
     4    1   44 1
     5    2    3 1
     6    2   45 1
     7    2   46 1
     8    3    4 1
     9    3   47 1
    10    3   48 1
    11    4    5 1
    12    4   49 1
    13    4   50 1
    14    5    6 1
    15    5   29 am
    16    6    7 1
    17    6   51 1
    18    6   52 1
    19    7    8 2
    20    7    9 am
    21    9   10 1
    22    9   24 1
    23   10   11 1
    24   10   53 1
    25   10   54 1
    26   11   15 1
    27   11   12 2
    28   12   13 1
    29   12   55 1
    30   13   14 2
    31   13   56 1
    32   14   15 1
    33   14   57 1
    34   15   16 1
    35   16   17 1
    36   16   58 1
    37   16   59 1
    38   17   22 ar
    39   17   18 ar
    40   18   19 ar
    41   18   60 1
    42   19   20 ar
    43   19   61 1
    44   20   21 ar
    45   20   62 1
    46   21   22 ar
    47   21   63 1
    48   22   23 1
    49   23   64 1
    50   23   65 1
    51   23   66 1
    52   24   25 1
    53   24   26 1
    54   24   27 1
    55   26   67 1
    56   26   68 1
    57   26   69 1
    58   27   28 1
    59   27   70 1
    60   27   71 1
    61   28   72 1
    62   28   73 1
    63   28   74 1
    64   29   30 2
    65   29   31 1
    66   31   36 ar
    67   31   32 ar
    68   32   33 ar
    69   32   75 1
    70   33   34 ar
    71   33   76 1
    72   34   35 ar
    73   34   37 1
    74   35   36 ar
    75   35   77 1
    76   36   78 1
    77   37   38 1
    78   38   39 1
    79   38   79 1
    80   38   80 1
    81   39   40 1
    82   39   81 1
    83   39   82 1
    84   40   41 1
    85   40   83 1
    86   40   84 1
    87   41   85 1
    88   41   86 1
    89   41   87 1
@<TRIPOS>MOLECULE
ZINC36542800
   69    70     0     0     0
SMALL
USER_CHARGES

@<TRIPOS>ATOM
      1 C1         -3.4303    1.5745    0.5378 C.3       1 <0>        -0.1533
      2 C2         -3.3307    0.1760    1.1502 C.3       1 <0>        -0.1240
      3 C3         -3.0465   -0.8449    0.0466 C.3       1 <0>        -0.1180
      4 C4         -2.9468   -2.2435    0.6590 C.3       1 <0>        -0.1069
      5 C5         -2.6626   -3.2644   -0.4446 C.3       1 <0>        -0.1026
      6 H1         -3.4243   -3.1827   -1.2200 H         1 <0>         0.0907
      7 C6         -1.2853   -2.9892   -1.0516 C.3       1 <0>        -0.1101
      8 C7         -1.0666   -3.9063   -2.2565 C.3       1 <0>        -0.1529
      9 C8         -2.6861   -4.6539    0.1383 C.2       1 <0>         0.5374
     10 O1         -1.6907   -5.1092    0.6608 O.2       1 <0>        -0.5105
     11 N1         -3.8131   -5.3905    0.0790 N.am      1 <0>        -0.5640
     12 C9         -4.9888   -4.8310   -0.4350 C.ar      1 <0>         0.1994
     13 C10        -5.8881   -4.1999    0.4141 C.ar      1 <0>        -0.1148
     14 C11        -7.0470   -3.6484   -0.0961 C.ar      1 <0>        -0.0962
     15 C12        -7.3130   -3.7242   -1.4511 C.ar      1 <0>        -0.1116
     16 C13        -6.4202   -4.3517   -2.3000 C.ar      1 <0>        -0.0949
     17 C14        -5.2557   -4.9008   -1.7969 C.ar      1 <0>        -0.0271
     18 Cl1        -4.1313   -5.6823   -2.8640 Cl        1 <0>        -0.0700
     19 C15        -3.8078   -6.7769    0.5526 C.3       1 <0>         0.1776
     20 H2         -3.0257   -7.3340    0.0368 H         1 <0>         0.1105
     21 C16        -3.5458   -6.7999    2.0364 C.ar      1 <0>        -0.0980
     22 C17        -4.2431   -5.9501    2.8746 C.ar      1 <0>        -0.0987
     23 C18        -4.0027   -5.9712    4.2358 C.ar      1 <0>        -0.1187
     24 C19        -3.0655   -6.8424    4.7587 C.ar      1 <0>        -0.0758
     25 C20        -2.3689   -7.6928    3.9206 C.ar      1 <0>        -0.1162
     26 C21        -2.6123   -7.6747    2.5600 C.ar      1 <0>        -0.0898
     27 C22        -2.8028   -6.8647    6.2425 C.3       1 <0>        -0.1175
     28 C23        -5.1457   -7.4098    0.2688 C.2       1 <0>         0.5138
     29 O2         -6.0217   -6.7626   -0.2649 O.2       1 <0>        -0.5013
     30 N2         -5.3689   -8.6949    0.6081 N.am      1 <0>        -0.7208
     31 C24        -6.6695   -9.3101    0.3323 C.3       1 <0>         0.1218
     32 C25        -6.6586  -10.7628    0.8124 C.3       1 <0>        -0.1326
     33 C26        -8.0169  -11.4053    0.5243 C.3       1 <0>        -0.1209
     34 C27        -8.0061  -12.8580    1.0045 C.3       1 <0>        -0.1533
     35 H3         -3.6328    2.3018    1.3240 H         1 <0>         0.0535
     36 H4         -2.4901    1.8236    0.0458 H         1 <0>         0.0538
     37 H5         -4.2391    1.5945   -0.1927 H         1 <0>         0.0538
     38 H6         -2.5219    0.1560    1.8807 H         1 <0>         0.0612
     39 H7         -4.2709   -0.0731    1.6422 H         1 <0>         0.0605
     40 H8         -3.8552   -0.8249   -0.6839 H         1 <0>         0.0638
     41 H9         -2.1062   -0.5958   -0.4454 H         1 <0>         0.0678
     42 H10        -2.1380   -2.2634    1.3895 H         1 <0>         0.0711
     43 H11        -3.8870   -2.4925    1.1510 H         1 <0>         0.0645
     44 H12        -1.2309   -1.9488   -1.3722 H         1 <0>         0.0757
     45 H13        -0.5145   -3.1801   -0.3050 H         1 <0>         0.0759
     46 H14        -0.0543   -3.7707   -2.6373 H         1 <0>         0.0573
     47 H15        -1.2046   -4.9441   -1.9531 H         1 <0>         0.0518
     48 H16        -1.7849   -3.6575   -3.0377 H         1 <0>         0.0540
     49 H17        -5.6818   -4.1407    1.4725 H         1 <0>         0.1242
     50 H18        -7.7467   -3.1574    0.5641 H         1 <0>         0.1272
     51 H19        -8.2204   -3.2926   -1.8470 H         1 <0>         0.1294
     52 H20        -6.6310   -4.4096   -3.3576 H         1 <0>         0.1310
     53 H21        -4.9753   -5.2694    2.4661 H         1 <0>         0.1195
     54 H22        -4.5470   -5.3068    4.8906 H         1 <0>         0.1222
     55 H23        -1.6364   -8.3732    4.3292 H         1 <0>         0.1249
     56 H24        -2.0708   -8.3418    1.9056 H         1 <0>         0.1231
     57 H25        -3.4692   -7.5839    6.7187 H         1 <0>         0.0718
     58 H26        -1.7674   -7.1532    6.4239 H         1 <0>         0.0679
     59 H27        -2.9818   -5.8731    6.6581 H         1 <0>         0.0670
     60 H28        -4.6683   -9.2125    1.0350 H         1 <0>         0.4014
     61 H29        -7.4504   -8.7598    0.8572 H         1 <0>         0.0692
     62 H30        -6.8641   -9.2833   -0.7399 H         1 <0>         0.0698
     63 H31        -5.8777  -11.3131    0.2875 H         1 <0>         0.0697
     64 H32        -6.4640  -10.7896    1.8846 H         1 <0>         0.0698
     65 H33        -8.7978  -10.8550    1.0492 H         1 <0>         0.0651
     66 H34        -8.2115  -11.3785   -0.5478 H         1 <0>         0.0654
     67 H35        -8.9738  -13.3157    0.7992 H         1 <0>         0.0569
     68 H36        -7.2252  -13.4083    0.4796 H         1 <0>         0.0548
     69 H37        -7.8115  -12.8848    2.0766 H         1 <0>         0.0547
@<TRIPOS>BOND
     1    1    2 1
     2    1   35 1
     3    1   36 1
     4    1   37 1
     5    2    3 1
     6    2   38 1
     7    2   39 1
     8    3    4 1
     9    3   40 1
    10    3   41 1
    11    4    5 1
    12    4   42 1
    13    4   43 1
    14    5    6 1
    15    5    7 1
    16    5    9 1
    17    7    8 1
    18    7   44 1
    19    7   45 1
    20    8   46 1
    21    8   47 1
    22    8   48 1
    23    9   10 2
    24    9   11 am
    25   11   12 1
    26   11   19 1
    27   12   17 ar
    28   12   13 ar
    29   13   14 ar
    30   13   49 1
    31   14   15 ar
    32   14   50 1
    33   15   16 ar
    34   15   51 1
    35   16   17 ar
    36   16   52 1
    37   17   18 1
    38   19   20 1
    39   19   21 1
    40   19   28 1
    41   21   26 ar
    42   21   22 ar
    43   22   23 ar
    44   22   53 1
    45   23   24 ar
    46   23   54 1
    47   24   25 ar
    48   24   27 1
    49   25   26 ar
    50   25   55 1
    51   26   56 1
    52   27   57 1
    53   27   58 1
    54   27   59 1
    55   28   29 2
    56   28   30 am
    57   30   31 1
    58   30   60 1
    59   31   32 1
    60   31   61 1
    61   31   62 1
    62   32   33 1
    63   32   63 1
    64   32   64 1
    65   33   34 1
    66   33   65 1
    67   33   66 1
    68   34   67 1
    69   34   68 1
    70   34   69 1
@<TRIPOS>MOLECULE
ZINC40018724
   78    80     0     0     0
SMALL
USER_CHARGES

@<TRIPOS>ATOM
      1 C1          3.7159   -7.0469   -7.0303 C.3       1 <0>        -0.1563
      2 C2          3.2220   -7.7601   -5.7701 C.3       1 <0>        -0.1224
      3 C3          3.0981   -6.7499   -4.6278 C.3       1 <0>        -0.1470
      4 C4          2.4883   -7.4362   -3.4038 C.3       1 <0>        -0.0217
      5 N1          2.2530   -6.4399   -2.3503 N.4       1 <0>        -0.3823
      6 C5          3.5075   -5.7359   -2.0530 C.3       1 <0>        -0.0158
      7 C6          4.5278   -6.7274   -1.4901 C.3       1 <0>        -0.1481
      8 C7          5.7869   -5.9733   -1.0579 C.3       1 <0>        -0.1203
      9 C8          6.8072   -6.9648   -0.4949 C.3       1 <0>        -0.1579
     10 C9          1.2453   -5.4734   -2.8066 C.3       1 <0>        -0.0115
     11 C10        -0.0938   -6.1870   -3.0030 C.3       1 <0>        -0.1729
     12 C11        -1.1171   -5.2032   -3.5739 C.3       1 <0>         0.1413
     13 N2         -2.4282   -5.8522   -3.6508 N.am      1 <0>        -0.6086
     14 C12        -3.4930   -5.7708   -2.6440 C.3       1 <0>         0.2525
     15 H1         -3.1436   -6.1777   -1.6950 H         1 <0>         0.0710
     16 C13        -4.6383   -6.6010   -3.1751 C.2       1 <0>        -0.4855
     17 C14        -4.2405   -7.0964   -4.3690 C.2       1 <0>         0.2776
     18 C15        -2.8720   -6.6238   -4.6597 C.2       1 <0>         0.5145
     19 O1         -2.2391   -6.8943   -5.6611 O.2       1 <0>        -0.5281
     20 O2         -4.9815   -7.8951   -5.1726 O.3       1 <0>        -0.5972
     21 C16        -5.9328   -6.8269   -2.5209 C.2       1 <0>         0.4956
     22 O3         -6.8194   -7.4175   -3.1124 O.2       1 <0>        -0.4733
     23 C17        -6.1588   -6.3423   -1.1567 C.2       1 <0>        -0.2137
     24 C18        -7.3286   -6.3501   -0.4070 C.2       1 <0>        -0.1140
     25 C19        -7.2301   -5.8208    0.8559 C.2       1 <0>        -0.1742
     26 C20        -6.0333   -5.3388    1.2782 C.2       1 <0>        -0.2685
     27 S1         -5.0026   -5.5962   -0.0233 S.3       1 <0>         0.2019
     28 C21        -3.9284   -4.3392   -2.4646 C.ar      1 <0>        -0.0887
     29 C22        -3.2451   -3.5132   -1.5918 C.ar      1 <0>        -0.1096
     30 C23        -3.6445   -2.2001   -1.4273 C.ar      1 <0>        -0.1232
     31 C24        -4.7267   -1.7128   -2.1359 C.ar      1 <0>        -0.0672
     32 C25        -5.4094   -2.5386   -3.0094 C.ar      1 <0>        -0.1212
     33 C26        -5.0074   -3.8505   -3.1771 C.ar      1 <0>        -0.0780
     34 C27        -5.1627   -0.2815   -1.9558 C.3       1 <0>        -0.0294
     35 C28        -4.0605    0.6541   -2.4564 C.3       1 <0>        -0.1354
     36 C29        -6.4437   -0.0341   -2.7551 C.3       1 <0>        -0.1463
     37 C30        -5.4265   -0.0115   -0.4731 C.3       1 <0>        -0.1378
     38 H2          3.0058   -6.2684   -7.3092 H         1 <0>         0.0600
     39 H3          4.6897   -6.5976   -6.8355 H         1 <0>         0.0557
     40 H4          3.8042   -7.7666   -7.8442 H         1 <0>         0.0653
     41 H5          2.2482   -8.2095   -5.9650 H         1 <0>         0.0765
     42 H6          3.9321   -8.5386   -5.4912 H         1 <0>         0.0708
     43 H7          4.0859   -6.3652   -4.3742 H         1 <0>         0.0853
     44 H8          2.4563   -5.9258   -4.9395 H         1 <0>         0.0876
     45 H9          1.5426   -7.9015   -3.6817 H         1 <0>         0.1358
     46 H10         3.1743   -8.1991   -3.0357 H         1 <0>         0.1297
     47 H11         3.8998   -5.2907   -2.9674 H         1 <0>         0.1315
     48 H12         3.3193   -4.9522   -1.3192 H         1 <0>         0.1295
     49 H13         4.0987   -7.2411   -0.6298 H         1 <0>         0.0851
     50 H14         4.7866   -7.4572   -2.2571 H         1 <0>         0.0870
     51 H15         6.2160   -5.4596   -1.9182 H         1 <0>         0.0720
     52 H16         5.5281   -5.2435   -0.2908 H         1 <0>         0.0723
     53 H17         6.3781   -7.4785    0.3653 H         1 <0>         0.0587
     54 H18         7.0660   -7.6947   -1.2620 H         1 <0>         0.0585
     55 H19         7.7042   -6.4276   -0.1870 H         1 <0>         0.0648
     56 H20         1.1319   -4.6870   -2.0604 H         1 <0>         0.1329
     57 H21         1.5649   -5.0341   -3.7516 H         1 <0>         0.1322
     58 H22         0.0359   -7.0189   -3.6953 H         1 <0>         0.0926
     59 H23        -0.4484   -6.5644   -2.0439 H         1 <0>         0.0924
     60 H24        -1.1817   -4.3293   -2.9257 H         1 <0>         0.0888
     61 H25        -0.8059   -4.8934   -4.5715 H         1 <0>         0.0838
     62 H26        -8.2559   -6.7467   -0.7932 H         1 <0>         0.1416
     63 H27        -8.0931   -5.7880    1.5045 H         1 <0>         0.1255
     64 H28        -5.7967   -4.8957    2.2342 H         1 <0>         0.1754
     65 H29        -2.3996   -3.8939   -1.0382 H         1 <0>         0.1116
     66 H30        -3.1111   -1.5549   -0.7449 H         1 <0>         0.1146
     67 H31        -6.2552   -2.1580   -3.5628 H         1 <0>         0.1227
     68 H32        -5.5385   -4.4946   -3.8623 H         1 <0>         0.1288
     69 H33        -3.8725    0.4618   -3.5127 H         1 <0>         0.0553
     70 H34        -4.3758    1.6894   -2.3261 H         1 <0>         0.0563
     71 H35        -3.1479    0.4779   -1.8869 H         1 <0>         0.0539
     72 H36        -7.2289   -0.7008   -2.3985 H         1 <0>         0.0596
     73 H37        -6.7590    1.0011   -2.6248 H         1 <0>         0.0564
     74 H38        -6.2557   -0.2265   -3.8114 H         1 <0>         0.0592
     75 H39        -4.5397   -0.2680    0.1064 H         1 <0>         0.0554
     76 H40        -5.6601    1.0438   -0.3320 H         1 <0>         0.0559
     77 H41        -6.2678   -0.6179   -0.1375 H         1 <0>         0.0567
     78 H42         1.9217   -6.9031   -1.5173 H         1 <0>         0.4240
@<TRIPOS>BOND
     1    1    2 1
     2    1   38 1
     3    1   39 1
     4    1   40 1
     5    2    3 1
     6    2   41 1
     7    2   42 1
     8    3    4 1
     9    3   43 1
    10    3   44 1
    11    4    5 1
    12    4   45 1
    13    4   46 1
    14    5    6 1
    15    5   10 1
    16    5   78 1
    17    6    7 1
    18    6   47 1
    19    6   48 1
    20    7    8 1
    21    7   49 1
    22    7   50 1
    23    8    9 1
    24    8   51 1
    25    8   52 1
    26    9   53 1
    27    9   54 1
    28    9   55 1
    29   10   11 1
    30   10   56 1
    31   10   57 1
    32   11   12 1
    33   11   58 1
    34   11   59 1
    35   12   13 1
    36   12   60 1
    37   12   61 1
    38   13   18 am
    39   13   14 1
    40   14   15 1
    41   14   16 1
    42   14   28 1
    43   16   17 2
    44   16   21 1
    45   17   18 1
    46   17   20 1
    47   18   19 2
    48   21   22 2
    49   21   23 1
    50   23   27 1
    51   23   24 2
    52   24   25 1
    53   24   62 1
    54   25   26 2
    55   25   63 1
    56   26   27 1
    57   26   64 1
    58   28   33 ar
    59   28   29 ar
    60   29   30 ar
    61   29   65 1
    62   30   31 ar
    63   30   66 1
    64   31   32 ar
    65   31   34 1
    66   32   33 ar
    67   32   67 1
    68   33   68 1
    69   34   35 1
    70   34   36 1
    71   34   37 1
    72   35   69 1
    73   35   70 1
    74   35   71 1
    75   36   72 1
    76   36   73 1
    77   36   74 1
    78   37   75 1
    79   37   76 1
    80   37   77 1
@<TRIPOS>MOLECULE
ZINC40214253
   73    76     0     0     0
SMALL
USER_CHARGES

@<TRIPOS>ATOM
      1 C1         -0.0187    1.5258    0.0104 C.3       1 <0>        -0.1556
      2 C2          0.0021   -0.0041    0.0020 C.3       1 <0>        -0.1163
      3 C3         -1.4333   -0.5336    0.0129 C.3       1 <0>        -0.0500
      4 H1         -1.9862   -0.1019   -0.8214 H         1 <0>         0.0769
      5 C4         -2.1103   -0.1453    1.3289 C.3       1 <0>        -0.1468
      6 C5         -1.4159   -2.0348   -0.1192 C.ar      1 <0>        -0.1082
      7 C6         -0.7731   -2.8039    0.8331 C.ar      1 <0>        -0.0745
      8 C7         -0.7553   -4.1801    0.7141 C.ar      1 <0>        -0.1449
      9 C8         -1.3836   -4.7903   -0.3619 C.ar      1 <0>         0.1226
     10 C9         -2.0283   -4.0163   -1.3158 C.ar      1 <0>        -0.2032
     11 C10        -2.0477   -2.6408   -1.1894 C.ar      1 <0>        -0.0769
     12 O1         -1.3672   -6.1439   -0.4814 O.3       1 <0>        -0.3117
     13 C11        -2.0344   -6.7033   -1.6145 C.3       1 <0>         0.0457
     14 C12        -1.9098   -8.2278   -1.5786 C.3       1 <0>         0.1145
     15 N1         -2.5939   -8.8012   -2.7402 N.pl3     1 <0>        -0.4866
     16 C13        -3.9201   -9.1792   -2.8046 C.ar      1 <0>         0.0466
     17 C14        -4.9756   -9.1605   -1.9029 C.ar      1 <0>        -0.1120
     18 C15        -6.2143   -9.6239   -2.2921 C.ar      1 <0>        -0.0992
     19 C16        -6.4120  -10.1086   -3.5773 C.ar      1 <0>        -0.1260
     20 C17        -5.3850  -10.1350   -4.4776 C.ar      1 <0>        -0.0637
     21 C18        -4.1209   -9.6696   -4.1058 C.ar      1 <0>         0.0482
     22 N2         -2.9324   -9.5678   -4.7546 N.2       1 <0>        -0.4854
     23 C19        -2.0415   -9.0545   -3.9573 C.2       1 <0>         0.2887
     24 C20        -0.6059   -8.7834   -4.3271 C.3       1 <0>        -0.0466
     25 C21         0.2435  -10.0162   -4.0116 C.3       1 <0>        -0.1127
     26 C22         1.7010   -9.7410   -4.3870 C.3       1 <0>        -0.1159
     27 C23         2.5504  -10.9738   -4.0715 C.3       1 <0>        -0.1323
     28 C24         4.0079  -10.6986   -4.4469 C.3       1 <0>         0.1176
     29 N3          4.8213  -11.8791   -4.1448 N.am      1 <0>        -0.7269
     30 C25         6.1456  -11.8669   -4.3947 C.2       1 <0>         0.5587
     31 O2          6.6652  -10.8764   -4.8708 O.2       1 <0>        -0.5306
     32 C26         6.9661  -13.0576   -4.0900 C.ar      1 <0>        -0.1334
     33 C27         6.3712  -14.1987   -3.5485 C.ar      1 <0>        -0.0743
     34 C28         7.1418  -15.3069   -3.2667 C.ar      1 <0>        -0.1175
     35 C29         8.5036  -15.2894   -3.5193 C.ar      1 <0>        -0.0111
     36 C30         9.0995  -14.1602   -4.0564 C.ar      1 <0>        -0.1168
     37 C31         8.3382  -13.0480   -4.3478 C.ar      1 <0>        -0.0459
     38 Cl1         9.4675  -16.6880   -3.1608 Cl        1 <0>        -0.0582
     39 H2          1.0039    1.9031    0.0027 H         1 <0>         0.0549
     40 H3         -0.5459    1.8868   -0.8726 H         1 <0>         0.0540
     41 H4         -0.5289    1.8773    0.9072 H         1 <0>         0.0576
     42 H5          0.5123   -0.3556   -0.8948 H         1 <0>         0.0625
     43 H6          0.5293   -0.3651    0.8851 H         1 <0>         0.0635
     44 H7         -3.1329   -0.5225    1.3366 H         1 <0>         0.0550
     45 H8         -1.5574   -0.5770    2.1631 H         1 <0>         0.0565
     46 H9         -2.1228    0.9405    1.4244 H         1 <0>         0.0615
     47 H10        -0.2841   -2.3285    1.6705 H         1 <0>         0.1297
     48 H11        -0.2525   -4.7805    1.4578 H         1 <0>         0.1314
     49 H12        -2.5181   -4.4890   -2.1543 H         1 <0>         0.1246
     50 H13        -2.5532   -2.0380   -1.9294 H         1 <0>         0.1246
     51 H14        -3.0878   -6.4242   -1.5902 H         1 <0>         0.0695
     52 H15        -1.5788   -6.3230   -2.5288 H         1 <0>         0.0696
     53 H16        -0.8564   -8.5069   -1.6029 H         1 <0>         0.1073
     54 H17        -2.3654   -8.6081   -0.6643 H         1 <0>         0.1035
     55 H18        -4.8270   -8.7850   -0.9013 H         1 <0>         0.1214
     56 H19        -7.0364   -9.6099   -1.5918 H         1 <0>         0.1311
     57 H20        -7.3876  -10.4688   -3.8686 H         1 <0>         0.1308
     58 H21        -5.5497  -10.5150   -5.4751 H         1 <0>         0.1300
     59 H22        -0.5410   -8.5603   -5.3921 H         1 <0>         0.1047
     60 H23        -0.2377   -7.9322   -3.7544 H         1 <0>         0.0843
     61 H24         0.1786  -10.2394   -2.9466 H         1 <0>         0.0638
     62 H25        -0.1247  -10.8674   -4.5843 H         1 <0>         0.0755
     63 H26         1.7660   -9.5179   -5.4520 H         1 <0>         0.0729
     64 H27         2.0692   -8.8898   -3.8144 H         1 <0>         0.0696
     65 H28         2.4855  -11.1970   -3.0066 H         1 <0>         0.0705
     66 H29         2.1822  -11.8250   -4.6442 H         1 <0>         0.0724
     67 H30         4.0729  -10.4755   -5.5119 H         1 <0>         0.0719
     68 H31         4.3761   -9.8474   -3.8743 H         1 <0>         0.0711
     69 H32         4.4067  -12.6694   -3.7649 H         1 <0>         0.4004
     70 H33         5.3096  -14.2133   -3.3505 H         1 <0>         0.1353
     71 H34         6.6828  -16.1902   -2.8478 H         1 <0>         0.1417
     72 H35        10.1618  -14.1522   -4.2509 H         1 <0>         0.1432
     73 H36         8.8032  -12.1696   -4.7704 H         1 <0>         0.1474
@<TRIPOS>BOND
     1    1    2 1
     2    1   39 1
     3    1   40 1
     4    1   41 1
     5    2    3 1
     6    2   42 1
     7    2   43 1
     8    3    4 1
     9    3    5 1
    10    3    6 1
    11    5   44 1
    12    5   45 1
    13    5   46 1
    14    6   11 ar
    15    6    7 ar
    16    7    8 ar
    17    7   47 1
    18    8    9 ar
    19    8   48 1
    20    9   10 ar
    21    9   12 1
    22   10   11 ar
    23   10   49 1
    24   11   50 1
    25   12   13 1
    26   13   14 1
    27   13   51 1
    28   13   52 1
    29   14   15 1
    30   14   53 1
    31   14   54 1
    32   15   23 1
    33   15   16 1
    34   16   21 ar
    35   16   17 ar
    36   17   18 ar
    37   17   55 1
    38   18   19 ar
    39   18   56 1
    40   19   20 ar
    41   19   57 1
    42   20   21 ar
    43   20   58 1
    44   21   22 1
    45   22   23 2
    46   23   24 1
    47   24   25 1
    48   24   59 1
    49   24   60 1
    50   25   26 1
    51   25   61 1
    52   25   62 1
    53   26   27 1
    54   26   63 1
    55   26   64 1
    56   27   28 1
    57   27   65 1
    58   27   66 1
    59   28   29 1
    60   28   67 1
    61   28   68 1
    62   29   30 am
    63   29   69 1
    64   30   31 2
    65   30   32 1
    66   32   37 ar
    67   32   33 ar
    68   33   34 ar
    69   33   70 1
    70   34   35 ar
    71   34   71 1
    72   35   36 ar
    73   35   38 1
    74   36   37 ar
    75   36   72 1
    76   37   73 1
@<TRIPOS>MOLECULE
ZINC40234669
   68    71     0     0     0
SMALL
USER_CHARGES

@<TRIPOS>ATOM
      1 C1         -0.0187    1.5258    0.0104 C.3       1 <0>        -0.1555
      2 C2          0.0021   -0.0041    0.0020 C.3       1 <0>        -0.1164
      3 C3          0.7182   -0.4975   -1.2568 C.3       1 <0>        -0.0492
      4 H1          1.7103   -0.0491   -1.3098 H         1 <0>         0.0764
      5 C4         -0.0892   -0.0968   -2.4931 C.3       1 <0>        -0.1467
      6 C5          0.8473   -1.9981   -1.2057 C.ar      1 <0>        -0.1120
      7 C6         -0.2867   -2.7865   -1.1406 C.ar      1 <0>        -0.0744
      8 C7         -0.1710   -4.1623   -1.0933 C.ar      1 <0>        -0.1488
      9 C8          1.0842   -4.7527   -1.1115 C.ar      1 <0>         0.1247
     10 C9          2.2205   -3.9595   -1.1773 C.ar      1 <0>        -0.2060
     11 C10         2.0993   -2.5843   -1.2297 C.ar      1 <0>        -0.0775
     12 O1          1.2006   -6.1059   -1.0646 O.3       1 <0>        -0.3155
     13 C11         2.5241   -6.6444   -1.0870 C.3       1 <0>         0.0615
     14 C12         2.4544   -8.1716   -1.0275 C.3       1 <0>        -0.1162
     15 C13         3.8715   -8.7481   -1.0515 C.3       1 <0>        -0.1346
     16 C14         3.8018  -10.2754   -0.9920 C.3       1 <0>         0.1080
     17 N1          5.1586  -10.8274   -1.0150 N.pl3     1 <0>        -0.4770
     18 C15         5.8828  -11.1722   -2.1386 C.ar      1 <0>         0.0573
     19 C16         5.6289  -11.1307   -3.5029 C.ar      1 <0>        -0.1129
     20 C17         6.5919  -11.5618   -4.3901 C.ar      1 <0>        -0.0942
     21 C18         7.8114  -12.0367   -3.9284 C.ar      1 <0>        -0.1282
     22 C19         8.0786  -12.0853   -2.5896 C.ar      1 <0>        -0.0578
     23 C20         7.1178  -11.6527   -1.6717 C.ar      1 <0>         0.0426
     24 N2          7.0844  -11.5779   -0.3164 N.2       1 <0>        -0.4632
     25 C21         5.9407  -11.0898    0.0667 C.2       1 <0>         0.2735
     26 C22         5.5396  -10.8530    1.4999 C.3       1 <0>         0.1428
     27 O2          4.9060  -12.0248    2.0170 O.3       1 <0>        -0.3046
     28 C23         4.4804  -11.9778    3.3068 C.ar      1 <0>         0.1685
     29 C24         4.6641  -10.8248    4.0572 C.ar      1 <0>        -0.2449
     30 C25         4.2317  -10.7765    5.3685 C.ar      1 <0>        -0.0377
     31 C26         3.6158  -11.8756    5.9363 C.ar      1 <0>        -0.2420
     32 C27         3.4299  -13.0306    5.1903 C.ar      1 <0>         0.1680
     33 C28         3.8574  -13.0795    3.8722 C.ar      1 <0>        -0.1842
     34 O3          2.8242  -14.1111    5.7493 O.3       1 <0>        -0.3136
     35 C29         2.4042  -13.9879    7.1096 C.3       1 <0>         0.0266
     36 H2          1.0039    1.9031    0.0027 H         1 <0>         0.0538
     37 H3         -0.5459    1.8868   -0.8726 H         1 <0>         0.0576
     38 H4         -0.5289    1.8773    0.9072 H         1 <0>         0.0546
     39 H5          0.5293   -0.3651    0.8851 H         1 <0>         0.0622
     40 H6         -1.0205   -0.3814    0.0098 H         1 <0>         0.0633
     41 H7         -0.1826    0.9885   -2.5300 H         1 <0>         0.0610
     42 H8          0.4210   -0.4484   -3.3899 H         1 <0>         0.0550
     43 H9         -1.0813   -0.5452   -2.4401 H         1 <0>         0.0563
     44 H10        -1.2637   -2.3264   -1.1264 H         1 <0>         0.1283
     45 H11        -1.0571   -4.7777   -1.0417 H         1 <0>         0.1300
     46 H12         3.1988   -4.4167   -1.1916 H         1 <0>         0.1257
     47 H13         2.9834   -1.9665   -1.2854 H         1 <0>         0.1236
     48 H14         3.0251   -6.3390   -2.0056 H         1 <0>         0.0633
     49 H15         3.0823   -6.2724   -0.2278 H         1 <0>         0.0630
     50 H16         1.9535   -8.4770   -0.1089 H         1 <0>         0.0805
     51 H17         1.8963   -8.5436   -1.8867 H         1 <0>         0.0806
     52 H18         4.3724   -8.4428   -1.9701 H         1 <0>         0.0771
     53 H19         4.4296   -8.3762   -0.1923 H         1 <0>         0.0739
     54 H20         3.3008  -10.5808   -0.0734 H         1 <0>         0.0986
     55 H21         3.2436  -10.6474   -1.8512 H         1 <0>         0.0977
     56 H22         4.6812  -10.7627   -3.8675 H         1 <0>         0.1229
     57 H23         6.3959  -11.5301   -5.4517 H         1 <0>         0.1321
     58 H24         8.5567  -12.3716   -4.6346 H         1 <0>         0.1318
     59 H25         9.0307  -12.4573   -2.2411 H         1 <0>         0.1312
     60 H26         6.4261  -10.6276    2.0928 H         1 <0>         0.1036
     61 H27         4.8464  -10.0133    1.5492 H         1 <0>         0.0853
     62 H28         5.1457   -9.9648    3.6159 H         1 <0>         0.1299
     63 H29         4.3755   -9.8784    5.9508 H         1 <0>         0.1305
     64 H30         3.2793  -11.8356    6.9618 H         1 <0>         0.1313
     65 H31         3.7095  -13.9760    3.2884 H         1 <0>         0.1395
     66 H32         1.9373  -14.9188    7.4314 H         1 <0>         0.1029
     67 H33         3.2689  -13.7785    7.7393 H         1 <0>         0.0582
     68 H34         1.6860  -13.1725    7.1956 H         1 <0>         0.0579
@<TRIPOS>BOND
     1    1    2 1
     2    1   36 1
     3    1   37 1
     4    1   38 1
     5    2    3 1
     6    2   39 1
     7    2   40 1
     8    3    4 1
     9    3    5 1
    10    3    6 1
    11    5   41 1
    12    5   42 1
    13    5   43 1
    14    6   11 ar
    15    6    7 ar
    16    7    8 ar
    17    7   44 1
    18    8    9 ar
    19    8   45 1
    20    9   10 ar
    21    9   12 1
    22   10   11 ar
    23   10   46 1
    24   11   47 1
    25   12   13 1
    26   13   14 1
    27   13   48 1
    28   13   49 1
    29   14   15 1
    30   14   50 1
    31   14   51 1
    32   15   16 1
    33   15   52 1
    34   15   53 1
    35   16   17 1
    36   16   54 1
    37   16   55 1
    38   17   25 1
    39   17   18 1
    40   18   23 ar
    41   18   19 ar
    42   19   20 ar
    43   19   56 1
    44   20   21 ar
    45   20   57 1
    46   21   22 ar
    47   21   58 1
    48   22   23 ar
    49   22   59 1
    50   23   24 1
    51   24   25 2
    52   25   26 1
    53   26   27 1
    54   26   60 1
    55   26   61 1
    56   27   28 1
    57   28   33 ar
    58   28   29 ar
    59   29   30 ar
    60   29   62 1
    61   30   31 ar
    62   30   63 1
    63   31   32 ar
    64   31   64 1
    65   32   33 ar
    66   32   34 1
    67   33   65 1
    68   34   35 1
    69   35   66 1
    70   35   67 1
    71   35   68 1
@<TRIPOS>MOLECULE
ZINC06837936
   64    65     0     0     0
SMALL
USER_CHARGES
N-isobutyl-N-[[isobutyl-[(1-methylpyrrol-2-yl)methyl]carbamoyl]methyl]-2-methyl-benzamide
@<TRIPOS>ATOM
      1 C1          0.9222    9.0420    5.7098 C.3       1 <0>        -0.1175
      2 C2         -0.4428    8.4099    5.8002 C.ar      1 <0>        -0.0409
      3 C3         -1.4019    8.9513    6.6314 C.ar      1 <0>        -0.1231
      4 C4         -2.6557    8.3727    6.7149 C.ar      1 <0>        -0.0962
      5 C5         -2.9567    7.2481    5.9668 C.ar      1 <0>        -0.1273
      6 C6         -2.0086    6.6998    5.1283 C.ar      1 <0>        -0.0857
      7 C7         -0.7399    7.2758    5.0431 C.ar      1 <0>        -0.1223
      8 C8          0.2827    6.6906    4.1499 C.2       1 <0>         0.5737
      9 O1          0.7442    7.3509    3.2396 O.2       1 <0>        -0.5241
     10 N1          0.7033    5.4251    4.3451 N.am      1 <0>        -0.5877
     11 C9          0.0759    4.5956    5.3768 C.3       1 <0>         0.1111
     12 C10         0.7393    4.8730    6.7273 C.3       1 <0>        -0.1146
     13 C11         0.0037    4.1014    7.8249 C.3       1 <0>        -0.1449
     14 C12         2.2008    4.4230    6.6796 C.3       1 <0>        -0.1496
     15 C13         1.7878    4.8790    3.5254 C.3       1 <0>         0.0958
     16 C14         1.2092    4.2295    2.2948 C.2       1 <0>         0.5029
     17 O2          0.0091    4.2234    2.1196 O.2       1 <0>        -0.5296
     18 N2          2.0254    3.6555    1.3888 N.am      1 <0>        -0.6022
     19 C15         1.4630    3.0241    0.1925 C.3       1 <0>         0.1805
     20 C16         1.3087    1.5441    0.4310 C.2       1 <0>        -0.0068
     21 C17         2.2045    0.5923    0.0990 C.2       1 <0>        -0.1852
     22 C18         1.6690   -0.6483    0.4980 C.2       1 <0>        -0.2022
     23 C19         0.4664   -0.4074    1.0585 C.2       1 <0>        -0.0119
     24 N3          0.2398    0.9365    1.0202 N.pl3     1 <0>        -0.4366
     25 C20        -0.9549    1.6155    1.5279 C.3       1 <0>         0.0769
     26 C21         3.4750    3.6629    1.6004 C.3       1 <0>         0.1116
     27 C22         4.0561    4.9883    1.1040 C.3       1 <0>        -0.1184
     28 C23         5.5481    5.0478    1.4375 C.3       1 <0>        -0.1464
     29 C24         3.8676    5.0924   -0.4108 C.3       1 <0>        -0.1482
     30 H1          0.9041    9.8412    4.9687 H         1 <0>         0.0794
     31 H2          1.1971    9.4534    6.6811 H         1 <0>         0.0705
     32 H3          1.6525    8.2889    5.4142 H         1 <0>         0.0636
     33 H4         -1.1733    9.8289    7.2179 H         1 <0>         0.1289
     34 H5         -3.4030    8.8008    7.3665 H         1 <0>         0.1271
     35 H6         -3.9375    6.8014    6.0362 H         1 <0>         0.1282
     36 H7         -2.2461    5.8247    4.5416 H         1 <0>         0.1286
     37 H8         -0.9861    4.8333    5.4380 H         1 <0>         0.0880
     38 H9          0.1985    3.5432    5.1211 H         1 <0>         0.0783
     39 H10         0.6947    5.9408    6.9416 H         1 <0>         0.0759
     40 H11         0.0483    3.0336    7.6106 H         1 <0>         0.0560
     41 H12         0.4763    4.2990    8.7870 H         1 <0>         0.0598
     42 H13        -1.0375    4.4220    7.8589 H         1 <0>         0.0572
     43 H14         2.2454    3.3552    6.4654 H         1 <0>         0.0545
     44 H15         2.7249    4.9727    5.8977 H         1 <0>         0.0544
     45 H16         2.6734    4.6206    7.6418 H         1 <0>         0.0584
     46 H17         2.3408    4.1373    4.1018 H         1 <0>         0.1083
     47 H18         2.4602    5.6842    3.2293 H         1 <0>         0.1140
     48 H19         2.1309    3.1882   -0.6531 H         1 <0>         0.1005
     49 H20         0.4881    3.4606   -0.0245 H         1 <0>         0.0901
     50 H21         3.1590    0.7521   -0.3803 H         1 <0>         0.1329
     51 H22         2.1360   -1.6147    0.3774 H         1 <0>         0.1346
     52 H23        -0.2018   -1.1507    1.4676 H         1 <0>         0.1593
     53 H24        -0.8285    1.8282    2.5894 H         1 <0>         0.0684
     54 H25        -1.1004    2.5494    0.9850 H         1 <0>         0.0933
     55 H26        -1.8249    0.9740    1.3870 H         1 <0>         0.0747
     56 H27         3.6877    3.5483    2.6633 H         1 <0>         0.0754
     57 H28         3.9270    2.8386    1.0485 H         1 <0>         0.0891
     58 H29         3.5415    5.8161    1.5919 H         1 <0>         0.0745
     59 H30         6.0628    4.2201    0.9496 H         1 <0>         0.0586
     60 H31         5.9621    5.9921    1.0839 H         1 <0>         0.0602
     61 H32         5.6824    4.9737    2.5167 H         1 <0>         0.0561
     62 H33         2.8047    5.0500   -0.6484 H         1 <0>         0.0559
     63 H34         4.2816    6.0366   -0.7644 H         1 <0>         0.0570
     64 H35         4.3823    4.2646   -0.8987 H         1 <0>         0.0568
@<TRIPOS>BOND
     1    1    2 1
     2    1   30 1
     3    1   31 1
     4    1   32 1
     5    2    7 ar
     6    2    3 ar
     7    3    4 ar
     8    3   33 1
     9    4    5 ar
    10    4   34 1
    11    5    6 ar
    12    5   35 1
    13    6    7 ar
    14    6   36 1
    15    7    8 1
    16    8    9 2
    17    8   10 am
    18   10   11 1
    19   10   15 1
    20   11   12 1
    21   11   37 1
    22   11   38 1
    23   12   13 1
    24   12   14 1
    25   12   39 1
    26   13   40 1
    27   13   41 1
    28   13   42 1
    29   14   43 1
    30   14   44 1
    31   14   45 1
    32   15   16 1
    33   15   46 1
    34   15   47 1
    35   16   17 2
    36   16   18 am
    37   18   19 1
    38   18   26 1
    39   19   20 1
    40   19   48 1
    41   19   49 1
    42   20   24 1
    43   20   21 2
    44   21   22 1
    45   21   50 1
    46   22   23 2
    47   22   51 1
    48   23   24 1
    49   23   52 1
    50   24   25 1
    51   25   53 1
    52   25   54 1
    53   25   55 1
    54   26   27 1
    55   26   56 1
    56   26   57 1
    57   27   28 1
    58   27   29 1
    59   27   58 1
    60   28   59 1
    61   28   60 1
    62   28   61 1
    63   29   62 1
    64   29   63 1
    65   29   64 1
@<TRIPOS>MOLECULE
ZINC16458796
   67    68     0     0     0
SMALL
USER_CHARGES
N-[2-[[1-[(2-chlorophenyl)methyl]pyrrol-2-yl]methyl-isobutyl-amino]-2-oxo-ethyl]-N-ethyl-3-methyl-butanamide
@<TRIPOS>ATOM
      1 C1          4.5350    3.5179   -7.6977 C.3       1 <0>        -0.1690
      2 C2          4.7143    2.0517   -8.0965 C.3       1 <0>         0.1064
      3 N1          5.4804    1.3541   -7.0608 N.am      1 <0>        -0.6016
      4 C3          4.7832    0.6827   -5.9611 C.3       1 <0>         0.0988
      5 C4          4.7348    1.5972   -4.7642 C.2       1 <0>         0.5026
      6 O1          5.2257    2.7045   -4.8269 O.2       1 <0>        -0.5132
      7 N2          4.1461    1.1846   -3.6242 N.am      1 <0>        -0.6019
      8 C5          4.0077    2.1081   -2.4954 C.3       1 <0>         0.1917
      9 C6          5.1672    1.9239   -1.5506 C.2       1 <0>        -0.0082
     10 C7          6.3933    1.4712   -1.8826 C.2       1 <0>        -0.1652
     11 C8          7.1673    1.4480   -0.7056 C.2       1 <0>        -0.2003
     12 C9          6.3876    1.8964    0.2991 C.2       1 <0>        -0.0017
     13 N3          5.1577    2.1865   -0.2128 N.pl3     1 <0>        -0.4365
     14 C10         4.0145    2.6955    0.5490 C.3       1 <0>         0.1439
     15 C11         3.9031    4.1855    0.3524 C.ar      1 <0>        -0.1066
     16 C12         3.0170    4.6957   -0.5777 C.ar      1 <0>        -0.0905
     17 C13         2.9151    6.0623   -0.7585 C.ar      1 <0>        -0.1130
     18 C14         3.6987    6.9197   -0.0086 C.ar      1 <0>        -0.0970
     19 C15         4.5847    6.4108    0.9219 C.ar      1 <0>        -0.1102
     20 C16         4.6837    5.0430    1.1067 C.ar      1 <0>        -0.0150
     21 Cl1         5.7912    4.4032    2.2805 Cl        1 <0>        -0.0620
     22 C17         3.6445   -0.1874   -3.5138 C.3       1 <0>         0.1116
     23 C18         2.2339   -0.2636   -4.1014 C.3       1 <0>        -0.1158
     24 C19         1.7666   -1.7204   -4.1188 C.3       1 <0>        -0.1477
     25 C20         1.2785    0.5683   -3.2435 C.3       1 <0>        -0.1497
     26 C21         6.8267    1.3299   -7.1196 C.2       1 <0>         0.5235
     27 O2          7.4609    0.7524   -6.2622 O.2       1 <0>        -0.5278
     28 C22         7.5439    2.0205   -8.2509 C.3       1 <0>        -0.1346
     29 C23         9.0541    1.8428   -8.0813 C.3       1 <0>        -0.0806
     30 C24         9.7766    2.4352   -9.2929 C.3       1 <0>        -0.1483
     31 C25         9.5130    2.5627   -6.8116 C.3       1 <0>        -0.1525
     32 H1          4.0206    3.5732   -6.7383 H         1 <0>         0.0637
     33 H2          5.5121    3.9938   -7.6140 H         1 <0>         0.0592
     34 H3          3.9446    4.0312   -8.4566 H         1 <0>         0.0630
     35 H4          5.2498    1.9958   -9.0442 H         1 <0>         0.0828
     36 H5          3.7365    1.5820   -8.2034 H         1 <0>         0.0786
     37 H6          5.3148   -0.2318   -5.6983 H         1 <0>         0.1089
     38 H7          3.7677    0.4363   -6.2713 H         1 <0>         0.1069
     39 H8          3.0749    1.9028   -1.9702 H         1 <0>         0.0784
     40 H9          3.9990    3.1338   -2.8641 H         1 <0>         0.0940
     41 H10         6.7205    1.1763   -2.8687 H         1 <0>         0.1281
     42 H11         8.1966    1.1314   -0.6235 H         1 <0>         0.1327
     43 H12         6.6847    2.0028    1.3320 H         1 <0>         0.1566
     44 H13         3.1014    2.2137    0.1995 H         1 <0>         0.0961
     45 H14         4.1576    2.4784    1.6075 H         1 <0>         0.1042
     46 H15         2.4043    4.0265   -1.1636 H         1 <0>         0.1298
     47 H16         2.2228    6.4605   -1.4856 H         1 <0>         0.1325
     48 H17         3.6182    7.9874   -0.1498 H         1 <0>         0.1352
     49 H18         5.1965    7.0807    1.5079 H         1 <0>         0.1364
     50 H19         4.3035   -0.8604   -4.0625 H         1 <0>         0.0801
     51 H20         3.6173   -0.4810   -2.4645 H         1 <0>         0.0846
     52 H21         2.2425    0.1274   -5.1189 H         1 <0>         0.0721
     53 H22         1.7580   -2.1113   -3.1014 H         1 <0>         0.0582
     54 H23         0.7617   -1.7746   -4.5375 H         1 <0>         0.0599
     55 H24         2.4473   -2.3130   -4.7300 H         1 <0>         0.0583
     56 H25         1.6393    1.5954   -3.1896 H         1 <0>         0.0555
     57 H26         0.2843    0.5554   -3.6902 H         1 <0>         0.0572
     58 H27         1.2311    0.1466   -2.2395 H         1 <0>         0.0555
     59 H28         7.2310    1.5844   -9.1995 H         1 <0>         0.0917
     60 H29         7.2998    3.0828   -8.2412 H         1 <0>         0.0945
     61 H30         9.2883    0.7812   -8.0019 H         1 <0>         0.0765
     62 H31         9.5423    3.4967   -9.3723 H         1 <0>         0.0547
     63 H32        10.8524    2.3085   -9.1721 H         1 <0>         0.0584
     64 H33         9.4496    1.9223  -10.1974 H         1 <0>         0.0539
     65 H34         8.9983    2.1406   -5.9485 H         1 <0>         0.0739
     66 H35        10.5888    2.4360   -6.6908 H         1 <0>         0.0515
     67 H36         9.2787    3.6242   -6.8911 H         1 <0>         0.0467
@<TRIPOS>BOND
     1    1    2 1
     2    1   32 1
     3    1   33 1
     4    1   34 1
     5    2    3 1
     6    2   35 1
     7    2   36 1
     8    3    4 1
     9    3   26 am
    10    4    5 1
    11    4   37 1
    12    4   38 1
    13    5    6 2
    14    5    7 am
    15    7    8 1
    16    7   22 1
    17    8    9 1
    18    8   39 1
    19    8   40 1
    20    9   13 1
    21    9   10 2
    22   10   11 1
    23   10   41 1
    24   11   12 2
    25   11   42 1
    26   12   13 1
    27   12   43 1
    28   13   14 1
    29   14   15 1
    30   14   44 1
    31   14   45 1
    32   15   20 ar
    33   15   16 ar
    34   16   17 ar
    35   16   46 1
    36   17   18 ar
    37   17   47 1
    38   18   19 ar
    39   18   48 1
    40   19   20 ar
    41   19   49 1
    42   20   21 1
    43   22   23 1
    44   22   50 1
    45   22   51 1
    46   23   24 1
    47   23   25 1
    48   23   52 1
    49   24   53 1
    50   24   54 1
    51   24   55 1
    52   25   56 1
    53   25   57 1
    54   25   58 1
    55   26   27 2
    56   26   28 1
    57   28   29 1
    58   28   59 1
    59   28   60 1
    60   29   30 1
    61   29   31 1
    62   29   61 1
    63   30   62 1
    64   30   63 1
    65   30   64 1
    66   31   65 1
    67   31   66 1
    68   31   67 1
@<TRIPOS>MOLECULE
ZINC35336396
   61    62     0     0     0
SMALL
USER_CHARGES

@<TRIPOS>ATOM
      1 C1          0.1014    0.3535    1.6841 C.3       1 <0>        -0.1542
      2 C2         -0.6089    1.1863    0.6151 C.3       1 <0>        -0.1375
      3 C3          0.4305    1.8193   -0.3123 C.3       1 <0>         0.1311
      4 H1          1.2652    2.1943    0.2798 H         1 <0>         0.0973
      5 C4         -0.2098    2.9766   -1.0814 C.3       1 <0>        -0.1758
      6 N1          0.9168    0.8132   -1.2596 N.am      1 <0>        -0.5792
      7 C5          0.0157    0.2716   -2.2798 C.3       1 <0>         0.0858
      8 C6          0.1058    1.1125   -3.5272 C.2       1 <0>         0.5087
      9 O1          0.8894    2.0367   -3.5802 O.2       1 <0>        -0.5259
     10 N2         -0.6842    0.8374   -4.5839 N.am      1 <0>        -0.6050
     11 C7         -0.4737    1.5321   -5.8564 C.3       1 <0>         0.1856
     12 C8          0.4993    0.7500   -6.7007 C.2       1 <0>        -0.0108
     13 C9          0.1754   -0.1450   -7.6559 C.2       1 <0>        -0.1847
     14 C10         1.3790   -0.6405   -8.1952 C.2       1 <0>        -0.2039
     15 C11         2.3926   -0.0293   -7.5489 C.2       1 <0>        -0.0087
     16 N3          1.8587    0.8296   -6.6345 N.pl3     1 <0>        -0.4338
     17 C12         2.6201    1.6925   -5.7279 C.3       1 <0>         0.0773
     18 C13        -1.7536   -0.1562   -4.4599 C.3       1 <0>         0.1084
     19 C14        -3.0648    0.5474   -4.1039 C.3       1 <0>        -0.1137
     20 C15        -4.2136   -0.4622   -4.1477 C.3       1 <0>        -0.1474
     21 C16        -2.9599    1.1399   -2.6972 C.3       1 <0>        -0.1593
     22 C17         2.1933    0.3858   -1.1925 C.2       1 <0>         0.5709
     23 O2          2.6255   -0.3727   -2.0384 O.2       1 <0>        -0.5173
     24 C18         3.0674    0.8394   -0.0906 C.ar      1 <0>        -0.0996
     25 C19         3.6125    2.1247   -0.1121 C.ar      1 <0>        -0.0725
     26 C20         4.4275    2.5429    0.9185 C.ar      1 <0>        -0.0959
     27 C21         4.7067    1.6907    1.9741 C.ar      1 <0>        -0.0181
     28 C22         4.1689    0.4136    2.0016 C.ar      1 <0>        -0.0308
     29 C23         3.3467   -0.0136    0.9784 C.ar      1 <0>        -0.0618
     30 Cl1         4.5241   -0.6479    3.3285 Cl        1 <0>        -0.0367
     31 Cl2         5.7346    2.2241    3.2673 Cl        1 <0>        -0.0381
     32 H2         -0.6402   -0.1350    2.3162 H         1 <0>         0.0596
     33 H3          0.7229   -0.4016    1.2029 H         1 <0>         0.0519
     34 H4          0.7274    1.0040    2.2949 H         1 <0>         0.0562
     35 H5         -1.2707    0.5438    0.0342 H         1 <0>         0.0671
     36 H6         -1.1936    1.9712    1.0949 H         1 <0>         0.0794
     37 H7         -0.3845    3.8114   -0.4027 H         1 <0>         0.0680
     38 H8          0.4575    3.2935   -1.8829 H         1 <0>         0.0834
     39 H9         -1.1587    2.6494   -1.5066 H         1 <0>         0.0593
     40 H10         0.3035   -0.7539   -2.5114 H         1 <0>         0.1108
     41 H11        -1.0078    0.2860   -1.9052 H         1 <0>         0.1168
     42 H12        -1.4235    1.6200   -6.3839 H         1 <0>         0.0987
     43 H13        -0.0709    2.5267   -5.6651 H         1 <0>         0.0894
     44 H14        -0.8232   -0.4300   -7.9528 H         1 <0>         0.1325
     45 H15         1.4727   -1.3750   -8.9813 H         1 <0>         0.1343
     46 H16         3.4456   -0.1895   -7.7278 H         1 <0>         0.1590
     47 H17         2.8185    1.1582   -4.7988 H         1 <0>         0.0745
     48 H18         3.5645    1.9688   -6.1968 H         1 <0>         0.0733
     49 H19         2.0438    2.5926   -5.5135 H         1 <0>         0.0895
     50 H20        -1.8701   -0.6845   -5.4062 H         1 <0>         0.0866
     51 H21        -1.4987   -0.8684   -3.6752 H         1 <0>         0.0789
     52 H22        -3.2551    1.3458   -4.8211 H         1 <0>         0.0776
     53 H23        -4.0232   -1.2605   -3.4304 H         1 <0>         0.0574
     54 H24        -5.1476    0.0391   -3.8940 H         1 <0>         0.0603
     55 H25        -4.2883   -0.8843   -5.1499 H         1 <0>         0.0593
     56 H26        -3.9094    1.6013   -2.4255 H         1 <0>         0.0626
     57 H27        -2.7241    0.3482   -1.9861 H         1 <0>         0.0565
     58 H28        -2.1716    1.8924   -2.6777 H         1 <0>         0.0585
     59 H29         3.3963    2.7902   -0.9348 H         1 <0>         0.1459
     60 H30         4.8493    3.5369    0.9024 H         1 <0>         0.1513
     61 H31         2.9243   -1.0073    1.0026 H         1 <0>         0.1468
@<TRIPOS>BOND
     1    1    2 1
     2    1   32 1
     3    1   33 1
     4    1   34 1
     5    2    3 1
     6    2   35 1
     7    2   36 1
     8    3    4 1
     9    3    5 1
    10    3    6 1
    11    5   37 1
    12    5   38 1
    13    5   39 1
    14    6    7 1
    15    6   22 am
    16    7    8 1
    17    7   40 1
    18    7   41 1
    19    8    9 2
    20    8   10 am
    21   10   11 1
    22   10   18 1
    23   11   12 1
    24   11   42 1
    25   11   43 1
    26   12   16 1
    27   12   13 2
    28   13   14 1
    29   13   44 1
    30   14   15 2
    31   14   45 1
    32   15   16 1
    33   15   46 1
    34   16   17 1
    35   17   47 1
    36   17   48 1
    37   17   49 1
    38   18   19 1
    39   18   50 1
    40   18   51 1
    41   19   20 1
    42   19   21 1
    43   19   52 1
    44   20   53 1
    45   20   54 1
    46   20   55 1
    47   21   56 1
    48   21   57 1
    49   21   58 1
    50   22   23 2
    51   22   24 1
    52   24   29 ar
    53   24   25 ar
    54   25   26 ar
    55   25   59 1
    56   26   27 ar
    57   26   60 1
    58   27   28 ar
    59   27   31 1
    60   28   29 ar
    61   28   30 1
    62   29   61 1
@<TRIPOS>MOLECULE
ZINC40006225
   55    57     0     0     0
SMALL
USER_CHARGES

@<TRIPOS>ATOM
      1 C1          1.0432    1.4197    0.2913 C.3       1 <0>        -0.1524
      2 C2          0.7901   -0.0868    0.2058 C.3       1 <0>         0.0522
      3 O1          1.1279   -0.5531   -1.1021 O.3       1 <0>        -0.3022
      4 C3          0.9600   -1.8802   -1.3468 C.ar      1 <0>         0.0926
      5 C4          0.4769   -2.7095   -0.3539 C.ar      1 <0>        -0.1347
      6 C5          0.3054   -4.0754   -0.6097 C.ar      1 <0>        -0.1066
      7 C6          0.6249   -4.5925   -1.8711 C.ar      1 <0>        -0.0321
      8 C7          1.1062   -3.7574   -2.8553 C.ar      1 <0>        -0.1852
      9 C8          1.2704   -2.4020   -2.6020 C.ar      1 <0>         0.1354
     10 O2          1.7398   -1.5827   -3.5788 O.3       1 <0>        -0.2921
     11 C9          2.0379   -2.1825   -4.8410 C.3       1 <0>         0.1001
     12 C10         2.5426   -1.1278   -5.7917 C.ar      1 <0>        -0.1043
     13 C11         1.6523   -0.4315   -6.5876 C.ar      1 <0>        -0.0889
     14 C12         2.1152    0.5360   -7.4596 C.ar      1 <0>        -0.1244
     15 C13         3.4685    0.8076   -7.5355 C.ar      1 <0>        -0.0733
     16 C14         4.3588    0.1120   -6.7390 C.ar      1 <0>        -0.1245
     17 C15         3.8954   -0.8526   -5.8638 C.ar      1 <0>        -0.0890
     18 C16         3.9733    1.8616   -8.4869 C.3       1 <0>        -0.1188
     19 C17        -0.2074   -4.9630    0.4418 C.2       1 <0>         0.1004
     20 C18         0.2984   -6.2152    0.5793 C.2       1 <0>        -0.2478
     21 C19         1.4632   -6.8376   -0.0810 C.2       1 <0>         0.5385
     22 O3          2.1430   -6.2283   -0.8860 O.2       1 <0>        -0.4524
     23 N1          1.7308   -8.0905    0.2469 N.am      1 <0>        -0.5200
     24 C20         0.9750   -8.7620    1.1394 C.2       1 <0>         0.2801
     25 S1          1.1585  -10.3728    1.6893 S.2       1 <0>        -0.2926
     26 S2         -0.2579   -7.5614    1.6156 S.3       1 <0>         0.0532
     27 C21         2.8739   -8.7644   -0.3739 C.3       1 <0>         0.0878
     28 C22         4.1241   -8.5375    0.4784 C.3       1 <0>         0.0460
     29 O4          3.9562   -9.1704    1.7485 O.3       1 <0>        -0.3721
     30 C23         5.0736   -9.0180    2.6261 C.3       1 <0>         0.0302
     31 H1          2.0956    1.6232    0.0936 H         1 <0>         0.0668
     32 H2          0.4287    1.9339   -0.4477 H         1 <0>         0.0673
     33 H3          0.7855    1.7754    1.2889 H         1 <0>         0.0793
     34 H4          1.4046   -0.6009    0.9448 H         1 <0>         0.0611
     35 H5         -0.2623   -0.2902    0.4035 H         1 <0>         0.0624
     36 H6          0.2324   -2.3056    0.6175 H         1 <0>         0.1415
     37 H7          0.4943   -5.6455   -2.0723 H         1 <0>         0.1270
     38 H8          1.3523   -4.1571   -3.8279 H         1 <0>         0.1394
     39 H9          2.8026   -2.9478   -4.7081 H         1 <0>         0.0730
     40 H10         1.1355   -2.6377   -5.2492 H         1 <0>         0.0732
     41 H11         0.5950   -0.6437   -6.5283 H         1 <0>         0.1243
     42 H12         1.4197    1.0795   -8.0819 H         1 <0>         0.1255
     43 H13         5.4161    0.3239   -6.7985 H         1 <0>         0.1253
     44 H14         4.5905   -1.3934   -5.2388 H         1 <0>         0.1240
     45 H15         3.9934    2.8274   -7.9818 H         1 <0>         0.0733
     46 H16         4.9798    1.6025   -8.8155 H         1 <0>         0.0682
     47 H17         3.3119    1.9175   -9.3515 H         1 <0>         0.0683
     48 H18        -0.9869   -4.6195    1.1057 H         1 <0>         0.1585
     49 H19         2.6712   -9.8331   -0.4442 H         1 <0>         0.1213
     50 H20         3.0363   -8.3589   -1.3725 H         1 <0>         0.1183
     51 H21         4.9909   -8.9626   -0.0277 H         1 <0>         0.0748
     52 H22         4.2762   -7.4678    0.6227 H         1 <0>         0.0535
     53 H23         5.9600   -9.4531    2.1646 H         1 <0>         0.0435
     54 H24         5.2453   -7.9583    2.8150 H         1 <0>         0.0374
     55 H25         4.8677   -9.5263    3.5681 H         1 <0>         0.0894
@<TRIPOS>BOND
     1    1    2 1
     2    1   31 1
     3    1   32 1
     4    1   33 1
     5    2    3 1
     6    2   34 1
     7    2   35 1
     8    3    4 1
     9    4    9 ar
    10    4    5 ar
    11    5    6 ar
    12    5   36 1
    13    6    7 ar
    14    6   19 1
    15    7    8 ar
    16    7   37 1
    17    8    9 ar
    18    8   38 1
    19    9   10 1
    20   10   11 1
    21   11   12 1
    22   11   39 1
    23   11   40 1
    24   12   17 ar
    25   12   13 ar
    26   13   14 ar
    27   13   41 1
    28   14   15 ar
    29   14   42 1
    30   15   16 ar
    31   15   18 1
    32   16   17 ar
    33   16   43 1
    34   17   44 1
    35   18   45 1
    36   18   46 1
    37   18   47 1
    38   19   20 2
    39   19   48 1
    40   20   26 1
    41   20   21 1
    42   21   22 2
    43   21   23 am
    44   23   24 1
    45   23   27 1
    46   24   25 2
    47   24   26 1
    48   27   28 1
    49   27   49 1
    50   27   50 1
    51   28   29 1
    52   28   51 1
    53   28   52 1
    54   29   30 1
    55   30   53 1
    56   30   54 1
    57   30   55 1
@<TRIPOS>MOLECULE
ZINC59893044
   41    42     0     0     0
SMALL
USER_CHARGES

@<TRIPOS>ATOM
      1 C1          0.0948    1.5125   -0.0860 C.3       1 <0>        -0.1331
      2 C2          0.2940   -0.0023   -0.1670 C.3       1 <0>        -0.0952
      3 H1         -0.6673   -0.4865   -0.3384 H         1 <0>         0.1327
      4 C3          1.2292   -0.3259   -1.3036 C.2       1 <0>         0.4547
      5 O1          2.3930   -0.5612   -1.0800 O.2       1 <0>        -0.4749
      6 O2          0.7692   -0.3527   -2.5643 O.3       1 <0>        -0.3388
      7 C4          1.7112   -0.6666   -3.5920 C.3       1 <0>         0.1113
      8 C5          1.0186   -0.6498   -4.9304 C.ar      1 <0>        -0.1264
      9 C6          0.4384   -1.8046   -5.4218 C.ar      1 <0>        -0.0583
     10 C7         -0.1966   -1.7919   -6.6486 C.ar      1 <0>        -0.1358
     11 C8         -0.2522   -0.6190   -7.3874 C.ar      1 <0>         0.1199
     12 C9          0.3303    0.5385   -6.8919 C.ar      1 <0>        -0.1927
     13 C10         0.9597    0.5218   -5.6622 C.ar      1 <0>        -0.0539
     14 O3         -0.8760   -0.6040   -8.5947 O.3       1 <0>        -0.3188
     15 C11        -0.8946    0.6387   -9.3000 C.3       1 <0>         0.4115
     16 F1         -1.5488    1.6039   -8.5269 F         1 <0>        -0.1968
     17 F2          0.4182    1.0527   -9.5499 F         1 <0>        -0.1968
     18 S1          1.0045   -0.6028    1.3903 S.3       1 <0>         0.0019
     19 C12         0.9306   -2.3572    1.2439 C.ar      1 <0>        -0.0469
     20 C13         0.2968   -2.9391    0.1525 C.ar      1 <0>        -0.1407
     21 C14         0.2408   -4.3142    0.0412 C.ar      1 <0>        -0.0269
     22 C15         0.8145   -5.1124    1.0141 C.ar      1 <0>        -0.0589
     23 C16         1.4457   -4.5369    2.1019 C.ar      1 <0>        -0.0295
     24 C17         1.5109   -3.1624    2.2167 C.ar      1 <0>        -0.0983
     25 N1          0.7524   -6.5860    0.8912 N.pl3     1 <0>         0.0352
     26 O4          0.2007   -7.0906   -0.0588 O.2       1 <0>        -0.1587
     27 O5          1.2534   -7.2851    1.7409 O.3       1 <0>        -0.1559
     28 H2          1.0578    1.9976    0.0737 H         1 <0>         0.0770
     29 H3         -0.3429    1.8718   -1.0174 H         1 <0>         0.0924
     30 H4         -0.5723    1.7474    0.7434 H         1 <0>         0.0912
     31 H5          2.5126    0.0721   -3.5883 H         1 <0>         0.0821
     32 H6          2.1291   -1.6570   -3.4116 H         1 <0>         0.0810
     33 H7          0.4820   -2.7174   -4.8462 H         1 <0>         0.1362
     34 H8         -0.6491   -2.6943   -7.0323 H         1 <0>         0.1407
     35 H9          0.2884    1.4528   -7.4652 H         1 <0>         0.1381
     36 H10         1.4095    1.4237   -5.2741 H         1 <0>         0.1323
     37 H11        -1.4218    0.5120  -10.2455 H         1 <0>         0.1854
     38 H12        -0.1517   -2.3164   -0.6074 H         1 <0>         0.1393
     39 H13        -0.2518   -4.7671   -0.8065 H         1 <0>         0.1578
     40 H14         1.8922   -5.1632    2.8599 H         1 <0>         0.1615
     41 H15         2.0085   -2.7136    3.0637 H         1 <0>         0.1551
@<TRIPOS>BOND
     1    1    2 1
     2    1   28 1
     3    1   29 1
     4    1   30 1
     5    2    3 1
     6    2    4 1
     7    2   18 1
     8    4    5 2
     9    4    6 1
    10    6    7 1
    11    7    8 1
    12    7   31 1
    13    7   32 1
    14    8   13 ar
    15    8    9 ar
    16    9   10 ar
    17    9   33 1
    18   10   11 ar
    19   10   34 1
    20   11   12 ar
    21   11   14 1
    22   12   13 ar
    23   12   35 1
    24   13   36 1
    25   14   15 1
    26   15   16 1
    27   15   17 1
    28   15   37 1
    29   18   19 1
    30   19   24 ar
    31   19   20 ar
    32   20   21 ar
    33   20   38 1
    34   21   22 ar
    35   21   39 1
    36   22   23 ar
    37   22   25 1
    38   23   24 ar
    39   23   40 1
    40   24   41 1
    41   25   26 2
    42   25   27 1
@<TRIPOS>MOLECULE
ZINC02611205
   50    52     0     0     0
SMALL
USER_CHARGES
N-[3-[(4-bromophenyl)methylsulfanyl]-5-propyl-1,2,4-triazol-4-yl]-1-(4-ethylphenyl)-methanimine
@<TRIPOS>ATOM
      1 C1         -0.1427   -9.9539   -3.1259 C.3       1 <0>        -0.1507
      2 C2         -0.1550   -8.5518   -2.5137 C.3       1 <0>        -0.1177
      3 C3          1.2832   -8.0663   -2.3222 C.3       1 <0>        -0.0302
      4 C4          1.2711   -6.6852   -1.7192 C.2       1 <0>         0.1962
      5 N1          1.2791   -6.3970   -0.4479 N.2       1 <0>        -0.2734
      6 N2          1.2643   -5.1228   -0.2823 N.2       1 <0>        -0.2821
      7 C5          1.2460   -4.5199   -1.4490 C.2       1 <0>         0.1534
      8 N3          1.2445   -5.4996   -2.4054 N.pl3     1 <0>        -0.3329
      9 N4          1.2233   -5.3260   -3.7954 N.2       1 <0>        -0.2634
     10 C6          2.3368   -5.2326   -4.4546 C.2       1 <0>         0.2088
     11 C7          2.3144   -5.0498   -5.9180 C.ar      1 <0>        -0.0950
     12 C8          1.0962   -4.9826   -6.5982 C.ar      1 <0>        -0.0558
     13 C9          1.0828   -4.8062   -7.9661 C.ar      1 <0>        -0.1274
     14 C10         2.2724   -4.7070   -8.6659 C.ar      1 <0>        -0.0437
     15 C11         3.4828   -4.7780   -7.9993 C.ar      1 <0>        -0.1261
     16 C12         3.5113   -4.9489   -6.6309 C.ar      1 <0>        -0.0664
     17 C13         2.2495   -4.5212  -10.1612 C.3       1 <0>        -0.0935
     18 C14         2.2559   -5.8897  -10.8454 C.3       1 <0>        -0.1482
     19 S1          1.2203   -2.7806   -1.7300 S.3       1 <0>         0.0179
     20 C15         1.2283   -2.1860   -0.0204 C.3       1 <0>        -0.0660
     21 C16         1.2084   -0.6791   -0.0127 C.ar      1 <0>        -0.0681
     22 C17         0.0021   -0.0041    0.0020 C.ar      1 <0>        -0.0917
     23 C18        -0.0167    1.3780    0.0096 C.ar      1 <0>        -0.0895
     24 C19         1.1718    2.0856    0.0021 C.ar      1 <0>        -0.0824
     25 C20         2.3786    1.4097   -0.0135 C.ar      1 <0>        -0.0899
     26 C21         2.3964    0.0277   -0.0207 C.ar      1 <0>        -0.0927
     27 Br1         1.1469    3.9764    0.0125 Br        1 <0>        -0.0447
     28 H1         -1.1673  -10.2998   -3.2623 H         1 <0>         0.0606
     29 H2          0.3624   -9.9244   -4.0914 H         1 <0>         0.0550
     30 H3          0.3856  -10.6364   -2.4602 H         1 <0>         0.0591
     31 H4         -0.6600   -8.5813   -1.5482 H         1 <0>         0.0719
     32 H5         -0.6833   -7.8693   -3.1794 H         1 <0>         0.0650
     33 H6          1.7883   -8.0367   -3.2877 H         1 <0>         0.0779
     34 H7          1.8116   -8.7488   -1.6565 H         1 <0>         0.1036
     35 H8          3.2801   -5.2887   -3.9317 H         1 <0>         0.1291
     36 H9          0.1671   -5.0647   -6.0538 H         1 <0>         0.1365
     37 H10         0.1416   -4.7496   -8.4928 H         1 <0>         0.1310
     38 H11         4.4075   -4.6998   -8.5518 H         1 <0>         0.1323
     39 H12         4.4568   -5.0049   -6.1119 H         1 <0>         0.1326
     40 H13         1.3492   -3.9768  -10.4460 H         1 <0>         0.0770
     41 H14         3.1288   -3.9562  -10.4706 H         1 <0>         0.0771
     42 H15         3.1562   -6.4341  -10.5606 H         1 <0>         0.0573
     43 H16         1.3766   -6.4547  -10.5360 H         1 <0>         0.0573
     44 H17         2.2394   -5.7553  -11.9269 H         1 <0>         0.0621
     45 H18         2.1278   -2.5401    0.4832 H         1 <0>         0.1102
     46 H19         0.3480   -2.5637    0.4997 H         1 <0>         0.1112
     47 H20        -0.9258   -0.5567    0.0079 H         1 <0>         0.1372
     48 H21        -0.9592    1.9053    0.0170 H         1 <0>         0.1378
     49 H22         3.3068    1.9618   -0.0194 H         1 <0>         0.1375
     50 H23         3.3386   -0.5001   -0.0321 H         1 <0>         0.1364
@<TRIPOS>BOND
     1    1    2 1
     2    1   28 1
     3    1   29 1
     4    1   30 1
     5    2    3 1
     6    2   31 1
     7    2   32 1
     8    3    4 1
     9    3   33 1
    10    3   34 1
    11    4    8 1
    12    4    5 2
    13    5    6 1
    14    6    7 2
    15    7    8 1
    16    7   19 1
    17    8    9 1
    18    9   10 2
    19   10   11 1
    20   10   35 1
    21   11   16 ar
    22   11   12 ar
    23   12   13 ar
    24   12   36 1
    25   13   14 ar
    26   13   37 1
    27   14   15 ar
    28   14   17 1
    29   15   16 ar
    30   15   38 1
    31   16   39 1
    32   17   18 1
    33   17   40 1
    34   17   41 1
    35   18   42 1
    36   18   43 1
    37   18   44 1
    38   19   20 1
    39   20   21 1
    40   20   45 1
    41   20   46 1
    42   21   26 ar
    43   21   22 ar
    44   22   23 ar
    45   22   47 1
    46   23   24 ar
    47   23   48 1
    48   24   25 ar
    49   24   27 1
    50   25   26 ar
    51   25   49 1
    52   26   50 1
@<TRIPOS>MOLECULE
ZINC08763244
   52    55     0     0     0
SMALL
USER_CHARGES
4-phenyl-3-(p-tolylmethylsulfanyl)-5-[[3-(trifluoromethyl)phenoxy]methyl]-1,2,4-triazole
@<TRIPOS>ATOM
      1 C1         -0.4581   17.3475    2.6311 C.3       1 <0>        -0.1190
      2 C2         -0.2639   15.9813    2.0253 C.ar      1 <0>        -0.0738
      3 C3          1.0098   15.5274    1.7379 C.ar      1 <0>        -0.1211
      4 C4          1.1879   14.2742    1.1823 C.ar      1 <0>        -0.0931
      5 C5          0.0925   13.4747    0.9148 C.ar      1 <0>        -0.0921
      6 C6         -1.1815   13.9305    1.1978 C.ar      1 <0>        -0.0928
      7 C7         -1.3594   15.1819    1.7575 C.ar      1 <0>        -0.1208
      8 C8          0.2867   12.1085    0.3091 C.3       1 <0>        -0.0631
      9 S1          0.4770   10.8848    1.6291 S.3       1 <0>         0.0242
     10 C9          0.6818    9.4242    0.6651 C.2       1 <0>         0.1728
     11 N1          0.6816    9.3471   -0.6456 N.2       1 <0>        -0.2850
     12 N2          0.8621    8.1287   -1.0125 N.2       1 <0>        -0.2462
     13 C10         0.9781    7.3580    0.0318 C.2       1 <0>         0.1806
     14 N3          0.8713    8.1555    1.1403 N.pl3     1 <0>        -0.4072
     15 C11         0.9420    7.7549    2.4825 C.ar      1 <0>         0.0919
     16 C12        -0.0343    6.9222    3.0121 C.ar      1 <0>        -0.0931
     17 C13         0.0413    6.5244    4.3326 C.ar      1 <0>        -0.1052
     18 C14         1.0815    6.9647    5.1303 C.ar      1 <0>        -0.0965
     19 C15         2.0523    7.7988    4.6071 C.ar      1 <0>        -0.1048
     20 C16         1.9853    8.1950    3.2855 C.ar      1 <0>        -0.0958
     21 C17         1.1957    5.8668    0.0217 C.3       1 <0>         0.1537
     22 O1         -0.0685    5.2008    0.0302 O.3       1 <0>        -0.3041
     23 C18        -0.0501    3.8419    0.0227 C.ar      1 <0>         0.1328
     24 C19         1.1601    3.1634    0.0075 C.ar      1 <0>        -0.1764
     25 C20         1.1762    1.7823    0.0004 C.ar      1 <0>        -0.0756
     26 C21        -0.0126    1.0758    0.0080 C.ar      1 <0>        -0.1077
     27 C22        -1.2197    1.7495    0.0173 C.ar      1 <0>        -0.1419
     28 C23        -1.2411    3.1310    0.0307 C.ar      1 <0>        -0.0992
     29 C24        -2.5133    0.9765    0.0193 C.3       1 <0>         0.5102
     30 F1         -2.2371   -0.3950    0.0105 F         1 <0>        -0.1738
     31 F2         -3.2465    1.2971    1.1668 F         1 <0>        -0.1742
     32 F3         -3.2573    1.3096   -1.1177 F         1 <0>        -0.1731
     33 H1         -0.5720   18.0846    1.8362 H         1 <0>         0.0735
     34 H2         -1.3521   17.3447    3.2547 H         1 <0>         0.0684
     35 H3          0.4092   17.6014    3.2405 H         1 <0>         0.0683
     36 H4          1.8657   16.1520    1.9472 H         1 <0>         0.1262
     37 H5          2.1830   13.9197    0.9574 H         1 <0>         0.1265
     38 H6         -2.0377   13.3076    0.9848 H         1 <0>         0.1267
     39 H7         -2.3545   15.5364    1.9823 H         1 <0>         0.1263
     40 H8          1.1802   12.1115   -0.3151 H         1 <0>         0.1078
     41 H9         -0.5810   11.8543   -0.2997 H         1 <0>         0.1078
     42 H10        -0.8498    6.5822    2.3909 H         1 <0>         0.1338
     43 H11        -0.7151    5.8724    4.7438 H         1 <0>         0.1374
     44 H12         1.1359    6.6562    6.1639 H         1 <0>         0.1352
     45 H13         2.8636    8.1411    5.2324 H         1 <0>         0.1381
     46 H14         2.7440    8.8462    2.8773 H         1 <0>         0.1328
     47 H15         1.7651    5.5768    0.9047 H         1 <0>         0.0875
     48 H16         1.7482    5.5863   -0.8751 H         1 <0>         0.1072
     49 H17         2.0888    3.7148    0.0016 H         1 <0>         0.1384
     50 H18         2.1179    1.2537   -0.0114 H         1 <0>         0.1416
     51 H19         0.0021   -0.0041    0.0020 H         1 <0>         0.1429
     52 H20        -2.1844    3.6568    0.0422 H         1 <0>         0.1431
@<TRIPOS>BOND
     1    1    2 1
     2    1   33 1
     3    1   34 1
     4    1   35 1
     5    2    7 ar
     6    2    3 ar
     7    3    4 ar
     8    3   36 1
     9    4    5 ar
    10    4   37 1
    11    5    6 ar
    12    5    8 1
    13    6    7 ar
    14    6   38 1
    15    7   39 1
    16    8    9 1
    17    8   40 1
    18    8   41 1
    19    9   10 1
    20   10   14 1
    21   10   11 2
    22   11   12 1
    23   12   13 2
    24   13   14 1
    25   13   21 1
    26   14   15 1
    27   15   20 ar
    28   15   16 ar
    29   16   17 ar
    30   16   42 1
    31   17   18 ar
    32   17   43 1
    33   18   19 ar
    34   18   44 1
    35   19   20 ar
    36   19   45 1
    37   20   46 1
    38   21   22 1
    39   21   47 1
    40   21   48 1
    41   22   23 1
    42   23   28 ar
    43   23   24 ar
    44   24   25 ar
    45   24   49 1
    46   25   26 ar
    47   25   50 1
    48   26   27 ar
    49   26   51 1
    50   27   28 ar
    51   27   29 1
    52   28   52 1
    53   29   30 1
    54   29   31 1
    55   29   32 1
@<TRIPOS>MOLECULE
ZINC27697646
   60    63     0     0     0
SMALL
USER_CHARGES
N,N-diallyl-2-[2-[(S)-phenyl-phenylsulfanyl-methyl]benzimidazol-1-yl]acetamide
@<TRIPOS>ATOM
      1 C1          5.0651   -2.6166   -6.2938 C.2       1 <0>        -0.1786
      2 C2          4.6160   -1.6099   -5.5860 C.2       1 <0>        -0.1751
      3 C3          4.5189   -1.7269   -4.0867 C.3       1 <0>         0.1427
      4 N1          5.2569   -0.6263   -3.4621 N.am      1 <0>        -0.6011
      5 C4          6.6764   -0.7874   -3.1373 C.3       1 <0>         0.1291
      6 C5          6.8129   -1.3371   -1.7408 C.2       1 <0>        -0.1933
      7 C6          7.4993   -2.4332   -1.5325 C.2       1 <0>        -0.1621
      8 C7          4.6301    0.5345   -3.1864 C.2       1 <0>         0.4937
      9 O1          3.4550    0.6679   -3.4553 O.2       1 <0>        -0.5011
     10 C8          5.3893    1.6667   -2.5439 C.3       1 <0>         0.0842
     11 N2          4.4918    2.8082   -2.3494 N.pl3     1 <0>        -0.4665
     12 C9          4.2618    3.8307   -3.2480 C.ar      1 <0>         0.0650
     13 C10         4.7372    4.1266   -4.5183 C.ar      1 <0>        -0.1112
     14 C11         4.3004    5.2641   -5.1630 C.ar      1 <0>        -0.0955
     15 C12         3.3895    6.1135   -4.5510 C.ar      1 <0>        -0.1276
     16 C13         2.9113    5.8387   -3.3013 C.ar      1 <0>        -0.0580
     17 C14         3.3399    4.6913   -2.6285 C.ar      1 <0>         0.0504
     18 N3          3.0565    4.1580   -1.4124 N.2       1 <0>        -0.4615
     19 C15         3.7278    3.0551   -1.2512 C.2       1 <0>         0.3045
     20 C16         3.6720    2.1819   -0.0243 C.3       1 <0>         0.0345
     21 H1          4.4403    1.4156   -0.2043 H         1 <0>         0.1048
     22 C17         2.3773    1.4107   -0.0150 C.ar      1 <0>        -0.0945
     23 C18         1.1710    2.0855    0.0021 C.ar      1 <0>        -0.0757
     24 C19        -0.0167    1.3781    0.0096 C.ar      1 <0>        -0.1182
     25 C20         0.0021   -0.0041    0.0020 C.ar      1 <0>        -0.1065
     26 C21         1.2084   -0.6789   -0.0132 C.ar      1 <0>        -0.1181
     27 C22         2.3960    0.0285   -0.0217 C.ar      1 <0>        -0.1029
     28 S1          3.7687    3.2191    1.4609 S.3       1 <0>        -0.0149
     29 C23         3.8409    2.0602    2.7861 C.ar      1 <0>        -0.0973
     30 C24         3.8100    0.6962    2.5212 C.ar      1 <0>        -0.1377
     31 C25         3.8717   -0.2091    3.5620 C.ar      1 <0>        -0.1006
     32 C26         3.9541    0.2401    4.8675 C.ar      1 <0>        -0.1234
     33 C27         3.9798    1.5967    5.1352 C.ar      1 <0>        -0.1009
     34 C28         3.9233    2.5078    4.0992 C.ar      1 <0>        -0.0981
     35 H2          5.1360   -2.5312   -7.3882 H         1 <0>         0.1038
     36 H3          5.3713   -3.5473   -5.7937 H         1 <0>         0.1006
     37 H4          4.3098   -0.6792   -6.0861 H         1 <0>         0.1115
     38 H5          3.4628   -1.6792   -3.7828 H         1 <0>         0.0947
     39 H6          4.9499   -2.6865   -3.7651 H         1 <0>         0.0853
     40 H7          7.1394   -1.4834   -3.8522 H         1 <0>         0.0935
     41 H8          7.1795    0.1889   -3.1979 H         1 <0>         0.0877
     42 H9          6.3361   -0.8179   -0.8963 H         1 <0>         0.1099
     43 H10         7.5989   -2.8344   -0.5131 H         1 <0>         0.1065
     44 H11         7.9761   -2.9524   -2.3770 H         1 <0>         0.1039
     45 H12         5.7819    1.3388   -1.5700 H         1 <0>         0.1208
     46 H13         6.2248    1.9639   -3.1948 H         1 <0>         0.1260
     47 H14         5.4462    3.4689   -4.9991 H         1 <0>         0.1180
     48 H15         4.6694    5.4956   -6.1513 H         1 <0>         0.1310
     49 H16         3.0556    7.0011   -5.0678 H         1 <0>         0.1312
     50 H17         2.2029    6.5068   -2.8341 H         1 <0>         0.1313
     51 H18         1.1563    3.1654    0.0077 H         1 <0>         0.1378
     52 H19        -0.9592    1.9054    0.0170 H         1 <0>         0.1254
     53 H20        -0.9258   -0.5567    0.0083 H         1 <0>         0.1233
     54 H21         1.2231   -1.7588   -0.0188 H         1 <0>         0.1227
     55 H22         3.3385   -0.4987   -0.0339 H         1 <0>         0.1142
     56 H23         3.7416    0.3448    1.5023 H         1 <0>         0.1291
     57 H24         3.8515   -1.2692    3.3567 H         1 <0>         0.1231
     58 H25         3.9980   -0.4702    5.6798 H         1 <0>         0.1243
     59 H26         4.0438    1.9439    6.1559 H         1 <0>         0.1282
     60 H27         3.9427    3.5671    4.3091 H         1 <0>         0.1277
@<TRIPOS>BOND
     1    1    2 2
     2    1   35 1
     3    1   36 1
     4    2    3 1
     5    2   37 1
     6    3    4 1
     7    3   38 1
     8    3   39 1
     9    4    5 1
    10    4    8 am
    11    5    6 1
    12    5   40 1
    13    5   41 1
    14    6    7 2
    15    6   42 1
    16    7   43 1
    17    7   44 1
    18    8    9 2
    19    8   10 1
    20   10   11 1
    21   10   45 1
    22   10   46 1
    23   11   19 1
    24   11   12 1
    25   12   17 ar
    26   12   13 ar
    27   13   14 ar
    28   13   47 1
    29   14   15 ar
    30   14   48 1
    31   15   16 ar
    32   15   49 1
    33   16   17 ar
    34   16   50 1
    35   17   18 1
    36   18   19 2
    37   19   20 1
    38   20   21 1
    39   20   22 1
    40   20   28 1
    41   22   27 ar
    42   22   23 ar
    43   23   24 ar
    44   23   51 1
    45   24   25 ar
    46   24   52 1
    47   25   26 ar
    48   25   53 1
    49   26   27 ar
    50   26   54 1
    51   27   55 1
    52   28   29 1
    53   29   34 ar
    54   29   30 ar
    55   30   31 ar
    56   30   56 1
    57   31   32 ar
    58   31   57 1
    59   32   33 ar
    60   32   58 1
    61   33   34 ar
    62   33   59 1
    63   34   60 1
@<TRIPOS>MOLECULE
ZINC37440036
   58    60     0     0     0
SMALL
USER_CHARGES

@<TRIPOS>ATOM
      1 C1         -0.0187    1.5258    0.0104 C.3       1 <0>        -0.1541
      2 C2          0.0021   -0.0041    0.0020 C.3       1 <0>        -0.0506
      3 C3          0.7421   -0.5109    1.2415 C.3       1 <0>        -0.1534
      4 C4         -1.4333   -0.5336    0.0129 C.3       1 <0>        -0.1437
      5 C5          0.7182   -0.4975   -1.2568 C.3       1 <0>        -0.1339
      6 C6          2.1320    0.0241   -1.2675 C.2       1 <0>         0.5183
      7 O1          2.5279    0.7218   -0.3579 O.2       1 <0>        -0.5172
      8 N1          2.9565   -0.2847   -2.2879 N.am      1 <0>        -0.6058
      9 C7          4.3309    0.2224   -2.2983 C.3       1 <0>         0.1547
     10 C8          5.2348   -0.7619   -1.6018 C.ar      1 <0>        -0.1076
     11 C9          5.4477   -0.6608   -0.2394 C.ar      1 <0>        -0.0622
     12 C10         6.2767   -1.5636    0.3994 C.ar      1 <0>        -0.1210
     13 C11         6.8927   -2.5680   -0.3239 C.ar      1 <0>        -0.0683
     14 C12         6.6792   -2.6697   -1.6856 C.ar      1 <0>        -0.1857
     15 C13         5.8465   -1.7692   -2.3239 C.ar      1 <0>        -0.0574
     16 C14         7.3510   -3.7643   -2.4740 C.3       1 <0>         0.5082
     17 F1          8.1337   -4.5441   -1.6158 F         1 <0>        -0.1765
     18 F2          6.3784   -4.5684   -3.0778 F         1 <0>        -0.1776
     19 F3          8.1647   -3.1965   -3.4603 F         1 <0>        -0.1756
     20 C15         2.4784   -1.1275   -3.3867 C.3       1 <0>         0.1137
     21 C16         1.8727   -0.2450   -4.4800 C.3       1 <0>         0.0239
     22 H1          1.1015    0.4069   -4.0697 H         1 <0>         0.0930
     23 C17         1.3127   -1.1044   -5.6385 C.3       1 <0>        -0.1456
     24 C18         1.6620   -0.2773   -6.8611 C.2       1 <0>         0.1246
     25 N2          2.5393    0.6046   -6.5159 N.2       1 <0>        -0.2772
     26 O2          2.8943    0.5218   -5.1493 O.3       1 <0>        -0.1831
     27 C19         1.0963   -0.4512   -8.2135 C.ar      1 <0>        -0.0419
     28 C20         0.1457   -1.4455   -8.4531 C.ar      1 <0>        -0.0733
     29 C21        -0.3795   -1.6028   -9.7186 C.ar      1 <0>        -0.1121
     30 C22         0.0345   -0.7773  -10.7507 C.ar      1 <0>        -0.0159
     31 C23         0.9773    0.2104  -10.5194 C.ar      1 <0>        -0.1115
     32 C24         1.5053    0.3816   -9.2569 C.ar      1 <0>        -0.0657
     33 Cl1        -0.6308   -0.9819  -12.3410 Cl        1 <0>        -0.0581
     34 H2          1.0039    1.9031    0.0027 H         1 <0>         0.0829
     35 H3         -0.5459    1.8868   -0.8726 H         1 <0>         0.0449
     36 H4         -0.5289    1.8773    0.9072 H         1 <0>         0.0525
     37 H5          0.2319   -0.1594    2.1383 H         1 <0>         0.0522
     38 H6          0.7568   -1.6008    1.2356 H         1 <0>         0.0452
     39 H7          1.7647   -0.1336    1.2338 H         1 <0>         0.0825
     40 H8         -1.9605   -0.1726   -0.8702 H         1 <0>         0.0541
     41 H9         -1.4185   -1.6235    0.0069 H         1 <0>         0.0545
     42 H10        -1.9435   -0.1821    0.9097 H         1 <0>         0.0597
     43 H11         0.7330   -1.5874   -1.2628 H         1 <0>         0.0933
     44 H12         0.1910   -0.1364   -2.1398 H         1 <0>         0.0904
     45 H13         4.6620    0.3537   -3.3285 H         1 <0>         0.0966
     46 H14         4.3687    1.1803   -1.7797 H         1 <0>         0.0995
     47 H15         4.9665    0.1238    0.3255 H         1 <0>         0.1393
     48 H16         6.4435   -1.4841    1.4635 H         1 <0>         0.1362
     49 H17         7.5410   -3.2730    0.1752 H         1 <0>         0.1385
     50 H18         5.6767   -1.8510   -3.3873 H         1 <0>         0.1308
     51 H19         3.3127   -1.6952   -3.7987 H         1 <0>         0.0934
     52 H20         1.7199   -1.8155   -3.0133 H         1 <0>         0.1031
     53 H21         1.8070   -2.0752   -5.6740 H         1 <0>         0.1107
     54 H22         0.2330   -1.2218   -5.5463 H         1 <0>         0.1097
     55 H23        -0.1774   -2.0903   -7.6492 H         1 <0>         0.1402
     56 H24        -1.1148   -2.3715   -9.9052 H         1 <0>         0.1429
     57 H25         1.2964    0.8508  -11.3284 H         1 <0>         0.1424
     58 H26         2.2372    1.1551   -9.0768 H         1 <0>         0.1431
@<TRIPOS>BOND
     1    1    2 1
     2    1   34 1
     3    1   35 1
     4    1   36 1
     5    2    3 1
     6    2    4 1
     7    2    5 1
     8    3   37 1
     9    3   38 1
    10    3   39 1
    11    4   40 1
    12    4   41 1
    13    4   42 1
    14    5    6 1
    15    5   43 1
    16    5   44 1
    17    6    7 2
    18    6    8 am
    19    8    9 1
    20    8   20 1
    21    9   10 1
    22    9   45 1
    23    9   46 1
    24   10   15 ar
    25   10   11 ar
    26   11   12 ar
    27   11   47 1
    28   12   13 ar
    29   12   48 1
    30   13   14 ar
    31   13   49 1
    32   14   15 ar
    33   14   16 1
    34   15   50 1
    35   16   17 1
    36   16   18 1
    37   16   19 1
    38   20   21 1
    39   20   51 1
    40   20   52 1
    41   21   22 1
    42   21   26 1
    43   21   23 1
    44   23   24 1
    45   23   53 1
    46   23   54 1
    47   24   25 2
    48   24   27 1
    49   25   26 1
    50   27   32 ar
    51   27   28 ar
    52   28   29 ar
    53   28   55 1
    54   29   30 ar
    55   29   56 1
    56   30   31 ar
    57   30   33 1
    58   31   32 ar
    59   31   57 1
    60   32   58 1
@<TRIPOS>MOLECULE
ZINC40238603
   60    62     0     0     0
SMALL
USER_CHARGES

@<TRIPOS>ATOM
      1 C1         -0.2227    1.5610   -1.0533 C.3       1 <0>        -0.1458
      2 C2         -0.1080    0.0517   -0.8302 C.3       1 <0>        -0.1117
      3 C3          0.7574   -0.2172    0.4026 C.3       1 <0>        -0.1503
      4 C4         -1.5025   -0.5392   -0.6132 C.3       1 <0>         0.1210
      5 N1         -1.4054   -1.9979   -0.5185 N.am      1 <0>        -0.6043
      6 C5         -1.2005   -2.6353    0.7845 C.3       1 <0>         0.0977
      7 C6         -2.5446   -2.7723    1.5023 C.3       1 <0>        -0.1146
      8 C7         -3.4362   -3.7494    0.7334 C.3       1 <0>        -0.1594
      9 C8         -2.3143   -3.2995    2.9200 C.3       1 <0>        -0.1479
     10 C9         -1.5047   -2.7534   -1.6302 C.2       1 <0>         0.4958
     11 O1         -1.5929   -2.2236   -2.7176 O.2       1 <0>        -0.5100
     12 C10        -1.5062   -4.2565   -1.5220 C.3       1 <0>         0.0789
     13 N2         -1.4580   -4.8427   -2.8638 N.pl3     1 <0>        -0.4724
     14 C11        -2.5412   -5.1680   -3.6574 C.ar      1 <0>         0.0635
     15 C12        -3.9161   -5.0714   -3.4958 C.ar      1 <0>        -0.1106
     16 C13        -4.7549   -5.4954   -4.5052 C.ar      1 <0>        -0.0984
     17 C14        -4.2334   -6.0181   -5.6804 C.ar      1 <0>        -0.1271
     18 C15        -2.8833   -6.1218   -5.8583 C.ar      1 <0>        -0.0634
     19 C16        -2.0119   -5.6973   -4.8486 C.ar      1 <0>         0.0547
     20 N3         -0.6681   -5.6739   -4.7365 N.2       1 <0>        -0.4783
     21 C17        -0.3284   -5.1670   -3.5723 C.2       1 <0>         0.3199
     22 C18         1.0476   -4.9802   -3.1009 C.2       1 <0>        -0.1055
     23 C19         2.0822   -5.3363   -3.8855 C.2       1 <0>        -0.0403
     24 C20         3.4639   -5.1487   -3.4122 C.ar      1 <0>        -0.0614
     25 C21         3.7050   -4.6064   -2.1463 C.ar      1 <0>        -0.0956
     26 C22         5.0012   -4.4340   -1.7093 C.ar      1 <0>        -0.1095
     27 C23         6.0633   -4.7962   -2.5215 C.ar      1 <0>        -0.0289
     28 C24         5.8317   -5.3341   -3.7769 C.ar      1 <0>        -0.1094
     29 C25         4.5406   -5.5174   -4.2243 C.ar      1 <0>        -0.0834
     30 Cl1         7.6922   -4.5746   -1.9637 Cl        1 <0>        -0.0656
     31 H1          0.7708    1.9820   -1.2079 H         1 <0>         0.0590
     32 H2         -0.8392    1.7526   -1.9316 H         1 <0>         0.0571
     33 H3         -0.6814    2.0237   -0.1795 H         1 <0>         0.0562
     34 H4          0.3507   -0.4109   -1.7040 H         1 <0>         0.0739
     35 H5          0.2987    0.2455    1.2765 H         1 <0>         0.0557
     36 H6          0.8391   -1.2925    0.5616 H         1 <0>         0.0558
     37 H7          1.7508    0.2037    0.2480 H         1 <0>         0.0566
     38 H8         -1.9256   -0.1425    0.3097 H         1 <0>         0.0800
     39 H9         -2.1451   -0.2714   -1.4519 H         1 <0>         0.0836
     40 H10        -0.7630   -3.6233    0.6408 H         1 <0>         0.0795
     41 H11        -0.5278   -2.0241    1.3862 H         1 <0>         0.0932
     42 H12        -3.0312   -1.7982    1.5515 H         1 <0>         0.0787
     43 H13        -2.9204   -4.7035    0.6248 H         1 <0>         0.0581
     44 H14        -4.3669   -3.8998    1.2806 H         1 <0>         0.0656
     45 H15        -3.6566   -3.3411   -0.2529 H         1 <0>         0.0536
     46 H16        -1.6791   -2.6034    3.4678 H         1 <0>         0.0590
     47 H17        -3.2719   -3.3971    3.4315 H         1 <0>         0.0616
     48 H18        -1.8278   -4.2737    2.8709 H         1 <0>         0.0581
     49 H19        -0.6352   -4.5806   -0.9524 H         1 <0>         0.1178
     50 H20        -2.4141   -4.5834   -1.0151 H         1 <0>         0.1328
     51 H21        -4.3277   -4.6662   -2.5832 H         1 <0>         0.1169
     52 H22        -5.8250   -5.4205   -4.3802 H         1 <0>         0.1304
     53 H23        -4.9022   -6.3465   -6.4622 H         1 <0>         0.1305
     54 H24        -2.4886   -6.5307   -6.7767 H         1 <0>         0.1303
     55 H25         1.2311   -4.5569   -2.1244 H         1 <0>         0.1299
     56 H26         1.8987   -5.7596   -4.8620 H         1 <0>         0.1428
     57 H27         2.8779   -4.3229   -1.5123 H         1 <0>         0.1318
     58 H28         5.1890   -4.0152   -0.7317 H         1 <0>         0.1362
     59 H29         6.6644   -5.6140   -4.4051 H         1 <0>         0.1382
     60 H30         4.3614   -5.9410   -5.2015 H         1 <0>         0.1397
@<TRIPOS>BOND
     1    1    2 1
     2    1   31 1
     3    1   32 1
     4    1   33 1
     5    2    3 1
     6    2    4 1
     7    2   34 1
     8    3   35 1
     9    3   36 1
    10    3   37 1
    11    4    5 1
    12    4   38 1
    13    4   39 1
    14    5    6 1
    15    5   10 am
    16    6    7 1
    17    6   40 1
    18    6   41 1
    19    7    8 1
    20    7    9 1
    21    7   42 1
    22    8   43 1
    23    8   44 1
    24    8   45 1
    25    9   46 1
    26    9   47 1
    27    9   48 1
    28   10   11 2
    29   10   12 1
    30   12   13 1
    31   12   49 1
    32   12   50 1
    33   13   21 1
    34   13   14 1
    35   14   19 ar
    36   14   15 ar
    37   15   16 ar
    38   15   51 1
    39   16   17 ar
    40   16   52 1
    41   17   18 ar
    42   17   53 1
    43   18   19 ar
    44   18   54 1
    45   19   20 1
    46   20   21 2
    47   21   22 1
    48   22   23 2
    49   22   55 1
    50   23   24 1
    51   23   56 1
    52   24   29 ar
    53   24   25 ar
    54   25   26 ar
    55   25   57 1
    56   26   27 ar
    57   26   58 1
    58   27   28 ar
    59   27   30 1
    60   28   29 ar
    61   28   59 1
    62   29   60 1
@<TRIPOS>MOLECULE
ZINC12918213
   39    41     0     0     0
SMALL
USER_CHARGES
2-(methylsulfanylmethyl)-5-[(2-phenoxyphenyl)methylsulfanyl]-1,3,4-oxadiazole
@<TRIPOS>ATOM
      1 C1          0.0840    1.5242   -0.1384 C.3       1 <0>        -0.1233
      2 S1         -0.7780    2.0274    1.3763 S.3       1 <0>        -0.2228
      3 C2          0.2399    1.3380    2.7102 C.3       1 <0>         0.0004
      4 C3         -0.3729    1.6880    4.0418 C.2       1 <0>         0.1759
      5 N1         -1.2533    0.9844    4.6911 N.2       1 <0>        -0.2505
      6 N2         -1.5523    1.5785    5.7924 N.2       1 <0>        -0.2849
      7 C4         -0.8733    2.6970    5.8799 C.2       1 <0>         0.1385
      8 O1         -0.1123    2.7895    4.7731 O.3       1 <0>        -0.1988
      9 S2         -0.9434    3.8616    7.2004 S.3       1 <0>         0.0903
     10 C5         -2.1551    3.0492    8.2719 C.3       1 <0>        -0.0761
     11 C6         -2.3810    3.8898    9.5021 C.ar      1 <0>        -0.0989
     12 C7         -1.6047    3.6909   10.6275 C.ar      1 <0>        -0.0838
     13 C8         -1.8077    4.4655   11.7545 C.ar      1 <0>        -0.1152
     14 C9         -2.7954    5.4335   11.7625 C.ar      1 <0>        -0.0913
     15 C10        -3.5780    5.6325   10.6420 C.ar      1 <0>        -0.1229
     16 C11        -3.3725    4.8602    9.5075 C.ar      1 <0>         0.1068
     17 O2         -4.1409    5.0543    8.4036 O.3       1 <0>        -0.2555
     18 C12        -5.2028    4.2284    8.2122 C.ar      1 <0>         0.1171
     19 C13        -5.5457    3.3003    9.1851 C.ar      1 <0>        -0.1937
     20 C14        -6.6292    2.4659    8.9905 C.ar      1 <0>        -0.0813
     21 C15        -7.3652    2.5474    7.8227 C.ar      1 <0>        -0.1490
     22 C16        -7.0219    3.4671    6.8490 C.ar      1 <0>        -0.0811
     23 C17        -5.9428    4.3078    7.0411 C.ar      1 <0>        -0.1436
     24 H1          0.1365    0.4364   -0.1822 H         1 <0>         0.0838
     25 H2          1.0928    1.9369   -0.1365 H         1 <0>         0.0825
     26 H3         -0.4594    1.8970   -1.0066 H         1 <0>         0.1109
     27 H4          0.2891    0.2541    2.6065 H         1 <0>         0.1312
     28 H5          1.2455    1.7547    2.6522 H         1 <0>         0.1179
     29 H6         -3.0957    2.9328    7.7336 H         1 <0>         0.1117
     30 H7         -1.7807    2.0686    8.5656 H         1 <0>         0.1147
     31 H8         -0.8357    2.9326   10.6254 H         1 <0>         0.1369
     32 H9         -1.1971    4.3112   12.6318 H         1 <0>         0.1353
     33 H10        -2.9551    6.0340   12.6458 H         1 <0>         0.1364
     34 H11        -4.3490    6.3888   10.6487 H         1 <0>         0.1377
     35 H12        -4.9687    3.2335   10.0956 H         1 <0>         0.1273
     36 H13        -6.8992    1.7464    9.7493 H         1 <0>         0.1267
     37 H14        -8.2094    1.8912    7.6708 H         1 <0>         0.1262
     38 H15        -7.5981    3.5285    5.9377 H         1 <0>         0.1319
     39 H16        -5.6750    5.0260    6.2803 H         1 <0>         0.1325
@<TRIPOS>BOND
     1    1    2 1
     2    1   24 1
     3    1   25 1
     4    1   26 1
     5    2    3 1
     6    3    4 1
     7    3   27 1
     8    3   28 1
     9    4    8 1
    10    4    5 2
    11    5    6 1
    12    6    7 2
    13    7    8 1
    14    7    9 1
    15    9   10 1
    16   10   11 1
    17   10   29 1
    18   10   30 1
    19   11   16 ar
    20   11   12 ar
    21   12   13 ar
    22   12   31 1
    23   13   14 ar
    24   13   32 1
    25   14   15 ar
    26   14   33 1
    27   15   16 ar
    28   15   34 1
    29   16   17 1
    30   17   18 1
    31   18   23 ar
    32   18   19 ar
    33   19   20 ar
    34   19   35 1
    35   20   21 ar
    36   20   36 1
    37   21   22 ar
    38   21   37 1
    39   22   23 ar
    40   22   38 1
    41   23   39 1
@<TRIPOS>MOLECULE
ZINC37842712
   41    41     0     0     0
SMALL
USER_CHARGES

@<TRIPOS>ATOM
      1 C1         -0.4630    1.5317   -0.2992 C.3       1 <0>        -0.1537
      2 C2         -0.2346    0.0356   -0.0747 C.3       1 <0>        -0.1516
      3 C3         -1.5431   -0.7212   -0.3112 C.3       1 <0>         0.1025
      4 N1         -1.2974   -2.1625   -0.2179 N.pl3     1 <0>        -0.9925
      5 C4         -1.3576   -2.8331    1.0832 C.3       1 <0>         0.1886
      6 H1         -0.5012   -3.4990    1.1887 H         1 <0>         0.0963
      7 C5         -1.3299   -1.7860    2.1984 C.3       1 <0>        -0.1562
      8 C6         -2.6310   -3.6336    1.1773 C.ar      1 <0>        -0.0636
      9 C7         -3.7249   -3.2854    0.4071 C.ar      1 <0>        -0.1042
     10 C8         -4.8927   -4.0199    0.4930 C.ar      1 <0>        -0.0988
     11 C9         -4.9673   -5.1029    1.3492 C.ar      1 <0>        -0.1134
     12 C10        -3.8743   -5.4517    2.1195 C.ar      1 <0>        -0.0864
     13 C11        -2.7035   -4.7200    2.0300 C.ar      1 <0>        -0.0799
     14 Br1        -1.2051   -5.2010    3.0786 Br        1 <0>        -0.0501
     15 S1         -0.9516   -3.0336   -1.5832 S.o2      1 <0>         2.6003
     16 O1         -1.3736   -4.3574   -1.2852 O.2       1 <0>        -0.9337
     17 O2         -1.5541   -2.3023   -2.6422 O.2       1 <0>        -0.9465
     18 C12         0.8554   -2.9720   -1.7303 C.3       1 <0>        -0.6390
     19 C13         1.2930   -3.7529   -2.9711 C.3       1 <0>        -0.1231
     20 C14         2.8170   -3.7009   -3.0951 C.3       1 <0>        -0.0268
     21 Cl1         3.3327   -4.6211   -4.5573 Cl        1 <0>        -0.1756
     22 H2          0.4692    2.0708   -0.1307 H         1 <0>         0.0595
     23 H3         -0.7993    1.6984   -1.3225 H         1 <0>         0.0591
     24 H4         -1.2217    1.8917    0.3957 H         1 <0>         0.0591
     25 H5          0.5240   -0.3244   -0.7697 H         1 <0>         0.0593
     26 H6          0.1017   -0.1311    0.9486 H         1 <0>         0.0764
     27 H7         -2.2739   -0.4277    0.4423 H         1 <0>         0.0933
     28 H8         -1.9274   -0.4816   -1.3027 H         1 <0>         0.0973
     29 H9         -2.1393   -1.0719    2.0465 H         1 <0>         0.0724
     30 H10        -1.4561   -2.2785    3.1625 H         1 <0>         0.0760
     31 H11        -0.3745   -1.2615    2.1806 H         1 <0>         0.0759
     32 H12        -3.6671   -2.4393   -0.2615 H         1 <0>         0.1274
     33 H13        -5.7472   -3.7474   -0.1086 H         1 <0>         0.1301
     34 H14        -5.8801   -5.6763    1.4162 H         1 <0>         0.1326
     35 H15        -3.9327   -6.2977    2.7883 H         1 <0>         0.1341
     36 H16         1.1773   -1.9346   -1.8215 H         1 <0>         0.1364
     37 H17         1.3074   -3.4160   -0.8434 H         1 <0>         0.1364
     38 H18         0.9710   -4.7902   -2.8798 H         1 <0>         0.0929
     39 H19         0.8409   -3.3088   -3.8580 H         1 <0>         0.0920
     40 H20         3.1390   -2.6635   -3.1864 H         1 <0>         0.0984
     41 H21         3.2691   -4.1449   -2.2082 H         1 <0>         0.0987
@<TRIPOS>BOND
     1    1    2 1
     2    1   22 1
     3    1   23 1
     4    1   24 1
     5    2    3 1
     6    2   25 1
     7    2   26 1
     8    3    4 1
     9    3   27 1
    10    3   28 1
    11    4    5 1
    12    4   15 1
    13    5    6 1
    14    5    7 1
    15    5    8 1
    16    7   29 1
    17    7   30 1
    18    7   31 1
    19    8   13 ar
    20    8    9 ar
    21    9   10 ar
    22    9   32 1
    23   10   11 ar
    24   10   33 1
    25   11   12 ar
    26   11   34 1
    27   12   13 ar
    28   12   35 1
    29   13   14 1
    30   15   16 2
    31   15   17 2
    32   15   18 1
    33   18   19 1
    34   18   36 1
    35   18   37 1
    36   19   20 1
    37   19   38 1
    38   19   39 1
    39   20   21 1
    40   20   40 1
    41   20   41 1
@<TRIPOS>MOLECULE
ZINC41548576
   38    39     0     0     0
SMALL
USER_CHARGES

@<TRIPOS>ATOM
      1 C1         -0.0187    1.5258    0.0104 C.3       1 <0>        -0.1546
      2 C2          0.0021   -0.0041    0.0020 C.3       1 <0>        -0.1263
      3 C3         -1.4333   -0.5336    0.0129 C.3       1 <0>        -0.1210
      4 C4         -1.4126   -2.0635    0.0045 C.3       1 <0>        -0.1149
      5 C5         -2.8479   -2.5931    0.0153 C.3       1 <0>        -0.1632
      6 C6         -2.8275   -4.0999    0.0070 C.2       1 <0>         0.3696
      7 O1         -1.7737   -4.6894   -0.0062 O.2       1 <0>        -0.4094
      8 C7         -4.1222   -4.8711    0.0153 C.3       1 <0>         0.0522
      9 H1         -4.8848   -4.2952    0.5395 H         1 <0>         0.1756
     10 C8         -4.5570   -5.1147   -1.3698 C.1       1 <0>         0.2018
     11 N1         -4.8926   -5.3028   -2.4387 N.1       1 <0>        -0.3659
     12 C9         -3.9174   -6.1891    0.7167 C.2       1 <0>         0.0786
     13 N2         -4.5263   -6.6305    1.7784 N.2       1 <0>        -0.4841
     14 C10        -4.2523   -7.8378    2.3143 C.ar      1 <0>         0.0765
     15 C11        -4.8048   -8.4719    3.4468 C.ar      1 <0>         0.0003
     16 C12        -4.3807   -9.7096    3.8228 C.ar      1 <0>        -0.1692
     17 C13        -3.3990  -10.3884    3.1142 C.ar      1 <0>        -0.0520
     18 C14        -2.8342   -9.7996    1.9984 C.ar      1 <0>        -0.0566
     19 C15        -3.2552   -8.5507    1.6107 C.ar      1 <0>        -0.1547
     20 S1         -2.8546   -7.4256    0.2993 S.3       1 <0>         0.1827
     21 C16        -4.9916  -10.3583    5.0381 C.3       1 <0>         0.5115
     22 F1         -6.1090  -11.1078    4.6546 F         1 <0>        -0.1718
     23 F2         -4.0501  -11.1996    5.6405 F         1 <0>        -0.1717
     24 F3         -5.3830   -9.3697    5.9473 F         1 <0>        -0.1733
     25 H2          1.0039    1.9031    0.0027 H         1 <0>         0.0543
     26 H3         -0.5459    1.8868   -0.8726 H         1 <0>         0.0538
     27 H4         -0.5289    1.8773    0.9072 H         1 <0>         0.0541
     28 H5          0.5123   -0.3556   -0.8948 H         1 <0>         0.0620
     29 H6          0.5293   -0.3651    0.8851 H         1 <0>         0.0623
     30 H7         -1.9435   -0.1821    0.9097 H         1 <0>         0.0653
     31 H8         -1.9605   -0.1726   -0.8702 H         1 <0>         0.0644
     32 H9         -0.9024   -2.4150   -0.8923 H         1 <0>         0.0714
     33 H10        -0.8854   -2.4246    0.8875 H         1 <0>         0.0726
     34 H11        -3.3581   -2.2415    0.9121 H         1 <0>         0.1134
     35 H12        -3.3751   -2.2320   -0.8677 H         1 <0>         0.1093
     36 H13        -5.5704   -7.9710    4.0206 H         1 <0>         0.1509
     37 H14        -3.0785  -11.3694    3.4325 H         1 <0>         0.1553
     38 H15        -2.0696  -10.3160    1.4371 H         1 <0>         0.1511
@<TRIPOS>BOND
     1    1    2 1
     2    1   25 1
     3    1   26 1
     4    1   27 1
     5    2    3 1
     6    2   28 1
     7    2   29 1
     8    3    4 1
     9    3   30 1
    10    3   31 1
    11    4    5 1
    12    4   32 1
    13    4   33 1
    14    5    6 1
    15    5   34 1
    16    5   35 1
    17    6    7 2
    18    6    8 1
    19    8    9 1
    20    8   10 1
    21    8   12 1
    22   10   11 3
    23   12   20 1
    24   12   13 2
    25   13   14 1
    26   14   19 ar
    27   14   15 ar
    28   15   16 ar
    29   15   36 1
    30   16   17 ar
    31   16   21 1
    32   17   18 ar
    33   17   37 1
    34   18   19 ar
    35   18   38 1
    36   19   20 1
    37   21   22 1
    38   21   23 1
    39   21   24 1
@<TRIPOS>MOLECULE
ZINC58933397
   49    52     0     0     0
SMALL
USER_CHARGES

@<TRIPOS>ATOM
      1 C1         -1.1141    1.8192    0.8185 C.ar      1 <0>        -0.1161
      2 C2         -0.1256    2.7760    0.9535 C.ar      1 <0>        -0.1201
      3 C3          1.2011    2.4282    0.7810 C.ar      1 <0>        -0.1108
      4 C4          1.5394    1.1235    0.4741 C.ar      1 <0>        -0.0871
      5 C5          0.5510    0.1665    0.3400 C.ar      1 <0>        -0.0958
      6 C6         -0.7759    0.5146    0.5110 C.ar      1 <0>        -0.1185
      7 C7          2.9857    0.7446    0.2851 C.3       1 <0>         0.0088
      8 C8          3.5703    0.3190    1.6072 C.2       1 <0>         0.0680
      9 N1          3.6120   -0.8812    2.1299 N.2       1 <0>        -0.4911
     10 C9          4.1627   -1.0977    3.3077 C.2       1 <0>         0.0806
     11 C10         4.6828   -0.0212    3.9510 C.2       1 <0>        -0.2384
     12 S1          4.3346    1.2695    2.7671 S.3       1 <0>         0.1046
     13 C11         4.2123   -2.4770    3.9128 C.3       1 <0>         0.1264
     14 N2          2.9544   -2.7460    4.6223 N.3       1 <0>        -0.5200
     15 C12         2.8666   -4.1569    5.0216 C.3       1 <0>         0.0903
     16 C13         2.5533   -5.0022    3.8140 C.ar      1 <0>        -0.0752
     17 C14         1.2451   -5.1448    3.3906 C.ar      1 <0>        -0.0906
     18 C15         0.9578   -5.9202    2.2829 C.ar      1 <0>        -0.1206
     19 C16         1.9787   -6.5526    1.5982 C.ar      1 <0>        -0.1184
     20 C17         3.2869   -6.4092    2.0210 C.ar      1 <0>        -0.1205
     21 C18         3.5747   -5.6304    3.1262 C.ar      1 <0>        -0.1142
     22 C19         2.8055   -1.8597    5.7843 C.3       1 <0>         0.1245
     23 C20         1.3700   -1.8695    6.2428 C.2       1 <0>         0.0035
     24 C21         0.8640   -2.6331    7.2278 C.2       1 <0>        -0.2092
     25 C22        -0.5121   -2.3227    7.3210 C.2       1 <0>        -0.2141
     26 C23        -0.7648   -1.3878    6.3874 C.2       1 <0>        -0.0381
     27 O1          0.3801   -1.1130    5.7413 O.3       1 <0>        -0.1654
     28 H1         -2.1503    2.0899    0.9576 H         1 <0>         0.1217
     29 H2         -0.3899    3.7953    1.1933 H         1 <0>         0.1231
     30 H3          1.9734    3.1759    0.8858 H         1 <0>         0.1216
     31 H4          0.8152   -0.8528    0.0998 H         1 <0>         0.1239
     32 H5         -1.5481   -0.2331    0.4059 H         1 <0>         0.1222
     33 H6          3.0556   -0.0793   -0.4252 H         1 <0>         0.1067
     34 H7          3.5390    1.6022   -0.0976 H         1 <0>         0.0996
     35 H8          5.1742    0.0377    4.9109 H         1 <0>         0.1931
     36 H9          4.3490   -3.2155    3.1229 H         1 <0>         0.0994
     37 H10         5.0448   -2.5364    4.6139 H         1 <0>         0.0548
     38 H11         3.8178   -4.4732    5.4497 H         1 <0>         0.0489
     39 H12         2.0768   -4.2761    5.7633 H         1 <0>         0.0898
     40 H13         0.4476   -4.6508    3.9256 H         1 <0>         0.1180
     41 H14        -0.0643   -6.0322    1.9526 H         1 <0>         0.1198
     42 H15         1.7541   -7.1590    0.7332 H         1 <0>         0.1197
     43 H16         4.0845   -6.9036    1.4863 H         1 <0>         0.1202
     44 H17         4.5972   -5.5153    3.4543 H         1 <0>         0.1170
     45 H18         3.4476   -2.2095    6.5927 H         1 <0>         0.0707
     46 H19         3.0913   -0.8452    5.5065 H         1 <0>         0.0948
     47 H20         1.4051   -3.3469    7.8313 H         1 <0>         0.1450
     48 H21        -1.2240   -2.7536    8.0094 H         1 <0>         0.1473
     49 H22        -1.7247   -0.9326    6.1930 H         1 <0>         0.2003
@<TRIPOS>BOND
     1    1    6 ar
     2    1    2 ar
     3    1   28 1
     4    2    3 ar
     5    2   29 1
     6    3    4 ar
     7    3   30 1
     8    4    5 ar
     9    4    7 1
    10    5    6 ar
    11    5   31 1
    12    6   32 1
    13    7    8 1
    14    7   33 1
    15    7   34 1
    16    8   12 1
    17    8    9 2
    18    9   10 1
    19   10   11 2
    20   10   13 1
    21   11   12 1
    22   11   35 1
    23   13   14 1
    24   13   36 1
    25   13   37 1
    26   14   15 1
    27   14   22 1
    28   15   16 1
    29   15   38 1
    30   15   39 1
    31   16   21 ar
    32   16   17 ar
    33   17   18 ar
    34   17   40 1
    35   18   19 ar
    36   18   41 1
    37   19   20 ar
    38   19   42 1
    39   20   21 ar
    40   20   43 1
    41   21   44 1
    42   22   23 1
    43   22   45 1
    44   22   46 1
    45   23   27 1
    46   23   24 2
    47   24   25 1
    48   24   47 1
    49   25   26 2
    50   25   48 1
    51   26   27 1
    52   26   49 1
@<TRIPOS>MOLECULE
ZINC66881054
   45    47     0     0     0
SMALL
USER_CHARGES

@<TRIPOS>ATOM
      1 C1         -0.0178    1.4648    0.0101 C.3       1 <0>         0.0165
      2 N1          0.0021   -0.0041    0.0020 N.3       1 <0>        -0.5133
      3 C2          0.7062   -0.5275    1.1802 C.3       1 <0>         0.0980
      4 C3          2.1628   -0.1488    1.1043 C.ar      1 <0>        -0.0690
      5 C4          3.0621   -0.9891    0.4736 C.ar      1 <0>        -0.0749
      6 C5          4.3976   -0.6456    0.4025 C.ar      1 <0>        -0.0894
      7 C6          4.8377    0.5464    0.9653 C.ar      1 <0>        -0.0906
      8 C7          3.9310    1.3886    1.5979 C.ar      1 <0>        -0.1205
      9 C8          2.5962    1.0410    1.6606 C.ar      1 <0>        -0.0920
     10 S1          6.5410    0.9887    0.8775 S.3       1 <0>        -0.0983
     11 C9          6.6237    2.5877    1.7302 C.3       1 <0>         0.2726
     12 F1          5.8049    3.5107    1.0709 F         1 <0>        -0.1799
     13 F2          6.1860    2.4354    3.0502 F         1 <0>        -0.1805
     14 C10        -1.3597   -0.5486   -0.0825 C.3       1 <0>         0.1997
     15 H1         -1.9185   -0.2700    0.8110 H         1 <0>         0.0787
     16 C11        -2.0492    0.0097   -1.3007 C.ar      1 <0>        -0.0996
     17 C12        -1.3512    0.1507   -2.4856 C.ar      1 <0>        -0.0459
     18 C13        -1.9826    0.6621   -3.6035 C.ar      1 <0>        -0.1620
     19 C14        -3.3148    1.0332   -3.5364 C.ar      1 <0>         0.1054
     20 C15        -4.0129    0.8916   -2.3491 C.ar      1 <0>        -0.1591
     21 C16        -3.3808    0.3750   -1.2339 C.ar      1 <0>        -0.0759
     22 F3         -3.9329    1.5337   -4.6285 F         1 <0>        -0.1391
     23 C17        -1.2945   -2.0506   -0.1862 C.ar      1 <0>         0.3240
     24 N2         -0.4228   -2.5996   -1.0082 N.ar      1 <0>        -0.4825
     25 C18        -0.3369   -3.9149   -1.1257 C.ar      1 <0>         0.1458
     26 C19        -1.1790   -4.7156   -0.3703 C.ar      1 <0>        -0.2276
     27 C20        -2.0824   -4.1017    0.4829 C.ar      1 <0>         0.1485
     28 N3         -2.1072   -2.7803    0.5514 N.ar      1 <0>        -0.5160
     29 H2          1.0047    1.8421    0.0024 H         1 <0>         0.0785
     30 H3         -0.5450    1.8259   -0.8730 H         1 <0>         0.0766
     31 H4         -0.5280    1.8163    0.9069 H         1 <0>         0.0301
     32 H5          0.2673   -0.1040    2.0837 H         1 <0>         0.0482
     33 H6          0.6139   -1.6133    1.2060 H         1 <0>         0.0770
     34 H7          2.7194   -1.9153    0.0364 H         1 <0>         0.1309
     35 H8          5.0994   -1.3027   -0.0896 H         1 <0>         0.1307
     36 H9          4.2695    2.3158    2.0364 H         1 <0>         0.1259
     37 H10         1.8904    1.6969    2.1485 H         1 <0>         0.1265
     38 H11         7.6525    2.9479    1.7278 H         1 <0>         0.1589
     39 H12        -0.3119   -0.1386   -2.5376 H         1 <0>         0.1490
     40 H13        -1.4370    0.7725   -4.5290 H         1 <0>         0.1367
     41 H14        -5.0520    1.1811   -2.2955 H         1 <0>         0.1367
     42 H15        -3.9264    0.2602   -0.3089 H         1 <0>         0.1333
     43 H16         0.3794   -4.3584   -1.8014 H         1 <0>         0.1697
     44 H17        -1.1325   -5.7920   -0.4449 H         1 <0>         0.1488
     45 H18        -2.7543   -4.6937    1.0865 H         1 <0>         0.1696
@<TRIPOS>BOND
     1    1    2 1
     2    1   29 1
     3    1   30 1
     4    1   31 1
     5    2    3 1
     6    2   14 1
     7    3    4 1
     8    3   32 1
     9    3   33 1
    10    4    9 ar
    11    4    5 ar
    12    5    6 ar
    13    5   34 1
    14    6    7 ar
    15    6   35 1
    16    7    8 ar
    17    7   10 1
    18    8    9 ar
    19    8   36 1
    20    9   37 1
    21   10   11 1
    22   11   12 1
    23   11   13 1
    24   11   38 1
    25   14   15 1
    26   14   16 1
    27   14   23 1
    28   16   21 ar
    29   16   17 ar
    30   17   18 ar
    31   17   39 1
    32   18   19 ar
    33   18   40 1
    34   19   20 ar
    35   19   22 1
    36   20   21 ar
    37   20   41 1
    38   21   42 1
    39   23   28 ar
    40   23   24 ar
    41   24   25 ar
    42   25   26 ar
    43   25   43 1
    44   26   27 ar
    45   26   44 1
    46   27   28 ar
    47   27   45 1
@<TRIPOS>MOLECULE
ZINC05555140
   39    40     0     0     0
SMALL
USER_CHARGES
propyl 4-[4-oxo-5-(2-thienylmethylene)-2-thioxo-thiazolidin-3-yl]butanoate
@<TRIPOS>ATOM
      1 C1         -1.7889    2.4476   -1.9332 C.3       1 <0>        -0.1516
      2 C2         -2.3009    2.8074   -0.5370 C.3       1 <0>        -0.1243
      3 C3         -1.4007    2.1619    0.5184 C.3       1 <0>         0.0653
      4 O1         -1.8866    2.5034    1.8434 O.3       1 <0>        -0.3580
      5 C4         -1.2027    2.0120    2.8886 C.2       1 <0>         0.4634
      6 O2         -0.2303    1.3195    2.7026 O.2       1 <0>        -0.5059
      7 C5         -1.6478    2.3241    4.2942 C.3       1 <0>        -0.1082
      8 C6         -0.7038    1.6475    5.2902 C.3       1 <0>        -0.1226
      9 C7         -1.1557    1.9643    6.7172 C.3       1 <0>         0.0858
     10 N1         -0.2518    1.3165    7.6708 N.am      1 <0>        -0.5200
     11 C8          0.8176    1.9652    8.0981 C.2       1 <0>         0.5364
     12 O3          1.0630    3.0936    7.7110 O.2       1 <0>        -0.4508
     13 C9          1.6763    1.3036    9.0276 C.2       1 <0>        -0.2756
     14 C10         2.8257    1.7456    9.6129 C.2       1 <0>         0.1655
     15 C11         3.4136    2.9598    9.1887 C.2       1 <0>        -0.2356
     16 C12         4.1179    3.9000    9.9330 C.2       1 <0>        -0.0773
     17 C13         4.5891    5.0002    9.2606 C.2       1 <0>        -0.1889
     18 C14         4.3406    5.1223    7.9303 C.2       1 <0>        -0.2035
     19 S1          3.4385    3.6888    7.5606 S.3       1 <0>         0.2520
     20 S2          0.8343   -0.2622    9.2143 S.3       1 <0>         0.0744
     21 C15        -0.5267    0.0665    8.1049 C.2       1 <0>         0.2785
     22 S3         -1.8445   -0.9462    7.6942 S.2       1 <0>        -0.3297
     23 H1         -2.4302    2.9075   -2.6850 H         1 <0>         0.0668
     24 H2         -0.7692    2.8142   -2.0519 H         1 <0>         0.0583
     25 H3         -1.8024    1.3647   -2.0572 H         1 <0>         0.0589
     26 H4         -3.3205    2.4408   -0.4183 H         1 <0>         0.0750
     27 H5         -2.2873    3.8902   -0.4129 H         1 <0>         0.0743
     28 H6         -1.4143    1.0790    0.3943 H         1 <0>         0.0714
     29 H7         -0.3811    2.5284    0.3997 H         1 <0>         0.0704
     30 H8         -1.6285    3.4027    4.4504 H         1 <0>         0.1116
     31 H9         -2.6616    1.9532    4.4450 H         1 <0>         0.1150
     32 H10        -0.7232    0.5689    5.1340 H         1 <0>         0.0853
     33 H11         0.3100    2.0183    5.1393 H         1 <0>         0.0802
     34 H12        -1.1363    3.0429    6.8734 H         1 <0>         0.1092
     35 H13        -2.1695    1.5935    6.8680 H         1 <0>         0.1154
     36 H14         3.2871    1.1684   10.4006 H         1 <0>         0.1683
     37 H15         4.2894    3.7688   10.9912 H         1 <0>         0.1449
     38 H16         5.1466    5.7627    9.7842 H         1 <0>         0.1375
     39 H17         4.6340    5.9201    7.2640 H         1 <0>         0.1881
@<TRIPOS>BOND
     1    1    2 1
     2    1   23 1
     3    1   24 1
     4    1   25 1
     5    2    3 1
     6    2   26 1
     7    2   27 1
     8    3    4 1
     9    3   28 1
    10    3   29 1
    11    4    5 1
    12    5    6 2
    13    5    7 1
    14    7    8 1
    15    7   30 1
    16    7   31 1
    17    8    9 1
    18    8   32 1
    19    8   33 1
    20    9   10 1
    21    9   34 1
    22    9   35 1
    23   10   21 1
    24   10   11 am
    25   11   12 2
    26   11   13 1
    27   13   14 2
    28   13   20 1
    29   14   15 1
    30   14   36 1
    31   15   19 1
    32   15   16 2
    33   16   17 1
    34   16   37 1
    35   17   18 2
    36   17   38 1
    37   18   19 1
    38   18   39 1
    39   20   21 1
    40   21   22 2
@<TRIPOS>MOLECULE
ZINC38020843
   41    41     0     0     0
SMALL
USER_CHARGES

@<TRIPOS>ATOM
      1 C1         -0.0187    1.5258    0.0104 C.3       1 <0>        -0.1520
      2 C2          0.0021   -0.0041    0.0020 C.3       1 <0>        -0.1450
      3 C3          0.7421   -0.5109    1.2415 C.3       1 <0>         0.1075
      4 N1          0.7619   -1.9757    1.2335 N.am      1 <0>        -0.5963
      5 C4          1.8644   -2.6898    0.5847 C.3       1 <0>         0.1251
      6 C5          2.9645   -2.9316    1.5859 C.2       1 <0>         0.4434
      7 O1          2.8403   -2.5469    2.7246 O.2       1 <0>        -0.4972
      8 O2          4.0823   -3.5743    1.2128 O.3       1 <0>        -0.3529
      9 C6          5.0836   -3.7688    2.2135 C.3       1 <0>         0.0609
     10 C7          6.2741   -4.5134    1.6059 C.3       1 <0>        -0.1525
     11 C8         -0.2340   -2.6665    1.8229 C.2       1 <0>         0.5578
     12 O3         -0.2175   -3.8833    1.8162 O.2       1 <0>        -0.5352
     13 C9         -1.3357   -1.9529    2.4712 C.2       1 <0>        -0.2068
     14 C10        -2.3322   -2.6439    3.0609 C.2       1 <0>        -0.0170
     15 C11        -3.4397   -1.9266    3.7127 C.ar      1 <0>        -0.0610
     16 C12        -3.4650   -0.5282    3.7173 C.ar      1 <0>        -0.0957
     17 C13        -4.5058    0.1368    4.3293 C.ar      1 <0>        -0.0916
     18 C14        -5.5247   -0.5763    4.9390 C.ar      1 <0>        -0.0813
     19 C15        -5.5063   -1.9614    4.9384 C.ar      1 <0>        -0.0920
     20 C16        -4.4749   -2.6401    4.3253 C.ar      1 <0>        -0.0875
     21 Br1        -6.9475    0.3454    5.7770 Br        1 <0>        -0.0441
     22 H1          1.0039    1.9031    0.0027 H         1 <0>         0.0576
     23 H2         -0.5459    1.8868   -0.8726 H         1 <0>         0.0611
     24 H3         -0.5289    1.8773    0.9072 H         1 <0>         0.0572
     25 H4         -1.0205   -0.3814    0.0098 H         1 <0>         0.0692
     26 H5          0.5123   -0.3556   -0.8948 H         1 <0>         0.0691
     27 H6          1.7647   -0.1336    1.2338 H         1 <0>         0.0824
     28 H7          0.2319   -0.1594    2.1383 H         1 <0>         0.0865
     29 H8          1.5040   -3.6451    0.2032 H         1 <0>         0.1295
     30 H9          2.2495   -2.0909   -0.2406 H         1 <0>         0.1242
     31 H10         5.4142   -2.8007    2.5898 H         1 <0>         0.0672
     32 H11         4.6687   -4.3549    3.0336 H         1 <0>         0.0675
     33 H12         5.9435   -5.4815    1.2296 H         1 <0>         0.0678
     34 H13         6.6890   -3.9273    0.7858 H         1 <0>         0.0672
     35 H14         7.0379   -4.6617    2.3692 H         1 <0>         0.0804
     36 H15        -1.3504   -0.8730    2.4772 H         1 <0>         0.1349
     37 H16        -2.3175   -3.7238    3.0550 H         1 <0>         0.1403
     38 H17        -2.6708    0.0291    3.2429 H         1 <0>         0.1361
     39 H18        -4.5267    1.2166    4.3337 H         1 <0>         0.1376
     40 H19        -6.3040   -2.5109    5.4161 H         1 <0>         0.1383
     41 H20        -4.4640   -3.7200    4.3220 H         1 <0>         0.1394
@<TRIPOS>BOND
     1    1    2 1
     2    1   22 1
     3    1   23 1
     4    1   24 1
     5    2    3 1
     6    2   25 1
     7    2   26 1
     8    3    4 1
     9    3   27 1
    10    3   28 1
    11    4    5 1
    12    4   11 am
    13    5    6 1
    14    5   29 1
    15    5   30 1
    16    6    7 2
    17    6    8 1
    18    8    9 1
    19    9   10 1
    20    9   31 1
    21    9   32 1
    22   10   33 1
    23   10   34 1
    24   10   35 1
    25   11   12 2
    26   11   13 1
    27   13   14 2
    28   13   36 1
    29   14   15 1
    30   14   37 1
    31   15   20 ar
    32   15   16 ar
    33   16   17 ar
    34   16   38 1
    35   17   18 ar
    36   17   39 1
    37   18   19 ar
    38   18   21 1
    39   19   20 ar
    40   19   40 1
    41   20   41 1
@<TRIPOS>MOLECULE
ZINC43277694
   52    55     0     0     0
SMALL
USER_CHARGES

@<TRIPOS>ATOM
      1 C1         -0.0705    1.4043   -0.0905 C.3       1 <0>        -0.1245
      2 C2         -0.0642   -0.1023   -0.0554 C.ar      1 <0>        -0.0568
      3 C3         -0.0933   -0.8214   -1.2359 C.ar      1 <0>        -0.1247
      4 C4         -0.0876   -2.2031   -1.2037 C.ar      1 <0>        -0.1130
      5 C5         -0.0522   -2.8662    0.0089 C.ar      1 <0>        -0.1270
      6 C6         -0.0221   -2.1474    1.1890 C.ar      1 <0>        -0.1129
      7 C7         -0.0235   -0.7652    1.1567 C.ar      1 <0>        -0.0871
      8 C8          0.0146    0.0187    2.4433 C.3       1 <0>         0.0900
      9 N1         -1.3192    0.5678    2.7218 N.3       1 <0>        -0.5269
     10 C9         -1.2550    1.6057    3.7594 C.3       1 <0>         0.0516
     11 C10        -0.4697    2.8076    3.2306 C.3       1 <0>        -0.1335
     12 C11        -0.4028    3.8886    4.3112 C.3       1 <0>         0.1057
     13 N2          0.3491    5.0395    3.8049 N.pl3     1 <0>        -0.4582
     14 C12         1.7006    5.2336    3.9030 C.2       1 <0>        -0.0580
     15 C13         1.9692    6.4117    3.3086 C.2       1 <0>        -0.0288
     16 N3          0.8133    6.9230    2.8597 N.2       1 <0>        -0.4951
     17 C14        -0.1607    6.1041    3.1490 C.2       1 <0>         0.1830
     18 C15        -2.2584   -0.4967    3.0994 C.3       1 <0>         0.1272
     19 C16        -3.6704    0.0202    2.9985 C.2       1 <0>        -0.0002
     20 C17        -4.4103    0.5060    4.0089 C.2       1 <0>         0.0437
     21 N4         -5.6088    0.8636    3.5225 N.2       1 <0>        -0.4403
     22 C18        -5.6367    0.6160    2.2447 C.2       1 <0>         0.1780
     23 N5         -4.4402    0.0855    1.8401 N.pl3     1 <0>        -0.4186
     24 C19        -4.3152   -0.2246    0.5034 C.2       1 <0>         0.0417
     25 C20        -5.3203   -0.0087   -0.3438 C.2       1 <0>        -0.1809
     26 S1         -6.5734    0.6667    0.7350 S.3       1 <0>         0.1238
     27 C21        -3.9696    0.6280    5.4449 C.3       1 <0>        -0.0717
     28 H1          0.9551    1.7711   -0.1314 H         1 <0>         0.0650
     29 H2         -0.6136    1.7449   -0.9720 H         1 <0>         0.0620
     30 H3         -0.5575    1.7866    0.8066 H         1 <0>         0.0856
     31 H4         -0.1210   -0.3034   -2.1832 H         1 <0>         0.1214
     32 H5         -0.1111   -2.7648   -2.1259 H         1 <0>         0.1215
     33 H6         -0.0484   -3.9459    0.0341 H         1 <0>         0.1211
     34 H7          0.0052   -2.6653    2.1363 H         1 <0>         0.1183
     35 H8          0.3150   -0.6378    3.2599 H         1 <0>         0.0472
     36 H9          0.7313    0.8346    2.3505 H         1 <0>         0.0904
     37 H10        -2.2652    1.9192    4.0227 H         1 <0>         0.0871
     38 H11        -0.7567    1.2062    4.6426 H         1 <0>         0.0436
     39 H12         0.5405    2.4942    2.9672 H         1 <0>         0.0730
     40 H13        -0.9680    3.2071    2.3473 H         1 <0>         0.0804
     41 H14        -1.4130    4.2021    4.5746 H         1 <0>         0.0956
     42 H15         0.0955    3.4891    5.1945 H         1 <0>         0.0924
     43 H16         2.4142    4.5697    4.3682 H         1 <0>         0.1721
     44 H17         2.9444    6.8653    3.2105 H         1 <0>         0.1687
     45 H18        -1.2024    6.2542    2.9063 H         1 <0>         0.2023
     46 H19        -2.1337   -1.3463    2.4280 H         1 <0>         0.0877
     47 H20        -2.0588   -0.8108    4.1239 H         1 <0>         0.0671
     48 H21        -3.3910   -0.6475    0.1381 H         1 <0>         0.1698
     49 H22        -5.3674   -0.1987   -1.4059 H         1 <0>         0.2152
     50 H23        -3.5040    1.6012    5.6005 H         1 <0>         0.0741
     51 H24        -4.8352    0.5304    6.1001 H         1 <0>         0.0794
     52 H25        -3.2509   -0.1592    5.6725 H         1 <0>         0.0723
@<TRIPOS>BOND
     1    1    2 1
     2    1   28 1
     3    1   29 1
     4    1   30 1
     5    2    7 ar
     6    2    3 ar
     7    3    4 ar
     8    3   31 1
     9    4    5 ar
    10    4   32 1
    11    5    6 ar
    12    5   33 1
    13    6    7 ar
    14    6   34 1
    15    7    8 1
    16    8    9 1
    17    8   35 1
    18    8   36 1
    19    9   10 1
    20    9   18 1
    21   10   11 1
    22   10   37 1
    23   10   38 1
    24   11   12 1
    25   11   39 1
    26   11   40 1
    27   12   13 1
    28   12   41 1
    29   12   42 1
    30   13   17 1
    31   13   14 1
    32   14   15 2
    33   14   43 1
    34   15   16 1
    35   15   44 1
    36   16   17 2
    37   17   45 1
    38   18   19 1
    39   18   46 1
    40   18   47 1
    41   19   23 1
    42   19   20 2
    43   20   21 1
    44   20   27 1
    45   21   22 2
    46   22   26 1
    47   22   23 1
    48   23   24 1
    49   24   25 2
    50   24   48 1
    51   25   26 1
    52   25   49 1
    53   27   50 1
    54   27   51 1
    55   27   52 1
@<TRIPOS>MOLECULE
ZINC60350583
   56    58     0     0     0
SMALL
USER_CHARGES

@<TRIPOS>ATOM
      1 C1          2.0341   -0.2990    2.3648 C.3       1 <0>        -0.1531
      2 C2          1.6645   -1.7450    2.0283 C.3       1 <0>        -0.1226
      3 C3          0.1751   -1.8247    1.6874 C.3       1 <0>        -0.1400
      4 C4         -0.1944   -3.2707    1.3509 C.3       1 <0>         0.1160
      5 N1         -1.6206   -3.3470    1.0245 N.pl3     1 <0>        -0.6139
      6 C5         -2.0656   -3.1695   -0.3600 C.3       1 <0>         0.1078
      7 C6         -2.0936   -4.5272   -1.0648 C.3       1 <0>        -0.1730
      8 C7         -2.5517   -3.5879    2.0286 C.ar      1 <0>         0.2547
      9 C8         -2.1277   -3.7508    3.3446 C.ar      1 <0>        -0.2091
     10 C9         -3.0468   -3.9893    4.3406 C.ar      1 <0>        -0.0041
     11 C10        -4.4075   -4.0680    4.0298 C.ar      1 <0>        -0.2165
     12 C11        -4.8301   -3.9040    2.7074 C.ar      1 <0>        -0.0858
     13 C12        -3.9066   -3.6601    1.7168 C.ar      1 <0>        -0.2156
     14 C13        -5.3953   -4.3241    5.0951 C.2       1 <0>         0.5850
     15 O1         -5.0516   -4.8745    6.1234 O.2       1 <0>        -0.5031
     16 N2         -6.6787   -3.9479    4.9286 N.am      1 <0>        -0.6018
     17 C14        -7.3277   -4.1142    3.6257 C.3       1 <0>         0.1526
     18 H1         -8.3986   -4.2625    3.7642 H         1 <0>         0.1201
     19 C15        -6.7256   -5.3269    2.8967 C.3       1 <0>        -0.1943
     20 C16        -7.1651   -5.3221    1.4127 C.3       1 <0>        -0.5764
     21 S1         -7.4212   -3.5328    1.0731 S.o2      1 <0>         2.3607
     22 O2         -6.4127   -3.0831    0.1787 O.2       1 <0>        -0.9219
     23 O3         -8.7882   -3.3141    0.7526 O.2       1 <0>        -0.9268
     24 C17        -7.0808   -2.8521    2.7509 C.3       1 <0>        -0.6289
     25 C18        -7.4249   -3.3725    6.0504 C.3       1 <0>         0.0760
     26 C19        -6.6411   -3.0315    7.3194 C.3       1 <0>        -0.1834
     27 C20        -7.5886   -4.2326    7.3051 C.3       1 <0>        -0.1853
     28 H2          3.0951   -0.2422    2.6077 H         1 <0>         0.0555
     29 H3          1.8232    0.3391    1.5066 H         1 <0>         0.0537
     30 H4          1.4472    0.0365    3.2199 H         1 <0>         0.0542
     31 H5          2.2514   -2.0805    1.1733 H         1 <0>         0.0626
     32 H6          1.8754   -2.3830    2.8865 H         1 <0>         0.0630
     33 H7         -0.4118   -1.4892    2.5424 H         1 <0>         0.0672
     34 H8         -0.0358   -1.1867    0.8292 H         1 <0>         0.0652
     35 H9          0.3925   -3.6062    0.4958 H         1 <0>         0.0779
     36 H10         0.0165   -3.9088    2.2091 H         1 <0>         0.0789
     37 H11        -3.0655   -2.7356   -0.3674 H         1 <0>         0.0865
     38 H12        -1.3769   -2.5040   -0.8805 H         1 <0>         0.0777
     39 H13        -2.7823   -5.1926   -0.5442 H         1 <0>         0.0594
     40 H14        -2.4248   -4.3951   -2.0948 H         1 <0>         0.0683
     41 H15        -1.0937   -4.9611   -1.0574 H         1 <0>         0.0562
     42 H16        -1.0763   -3.6902    3.5840 H         1 <0>         0.1314
     43 H17        -2.7172   -4.1159    5.3613 H         1 <0>         0.1336
     44 H18        -5.8806   -3.9647    2.4642 H         1 <0>         0.1359
     45 H19        -4.2329   -3.5286    0.6957 H         1 <0>         0.1518
     46 H20        -5.6380   -5.2791    2.9522 H         1 <0>         0.1375
     47 H21        -7.0712   -6.2441    3.3735 H         1 <0>         0.1058
     48 H22        -6.3793   -5.7278    0.7756 H         1 <0>         0.1505
     49 H23        -8.0943   -5.8770    1.2830 H         1 <0>         0.1484
     50 H24        -7.7808   -2.0553    3.0021 H         1 <0>         0.1496
     51 H25        -6.0496   -2.5093    2.8356 H         1 <0>         0.1666
     52 H26        -8.2521   -2.7171    5.7780 H         1 <0>         0.1333
     53 H27        -5.5703   -3.2351    7.3195 H         1 <0>         0.1083
     54 H28        -6.9525   -2.1514    7.8820 H         1 <0>         0.1013
     55 H29        -8.5235   -4.1428    7.8584 H         1 <0>         0.0977
     56 H30        -7.1412   -5.2265    7.2959 H         1 <0>         0.1046
@<TRIPOS>BOND
     1    1    2 1
     2    1   28 1
     3    1   29 1
     4    1   30 1
     5    2    3 1
     6    2   31 1
     7    2   32 1
     8    3    4 1
     9    3   33 1
    10    3   34 1
    11    4    5 1
    12    4   35 1
    13    4   36 1
    14    5    6 1
    15    5    8 1
    16    6    7 1
    17    6   37 1
    18    6   38 1
    19    7   39 1
    20    7   40 1
    21    7   41 1
    22    8   13 ar
    23    8    9 ar
    24    9   10 ar
    25    9   42 1
    26   10   11 ar
    27   10   43 1
    28   11   12 ar
    29   11   14 1
    30   12   13 ar
    31   12   44 1
    32   13   45 1
    33   14   15 2
    34   14   16 am
    35   16   17 1
    36   16   25 1
    37   17   18 1
    38   17   24 1
    39   17   19 1
    40   19   20 1
    41   19   46 1
    42   19   47 1
    43   20   21 1
    44   20   48 1
    45   20   49 1
    46   21   22 2
    47   21   23 2
    48   21   24 1
    49   24   50 1
    50   24   51 1
    51   25   27 1
    52   25   26 1
    53   25   52 1
    54   26   27 1
    55   26   53 1
    56   26   54 1
    57   27   55 1
    58   27   56 1
@<TRIPOS>MOLECULE
ZINC66364729
   51    51     0     0     0
SMALL
USER_CHARGES

@<TRIPOS>ATOM
      1 C1         -0.3417    1.7204    0.1859 C.3       1 <0>        -0.1552
      2 C2         -0.0783    0.2216    0.0279 C.3       1 <0>        -0.1201
      3 C3          0.7621   -0.2756    1.2058 C.3       1 <0>         0.0796
      4 H1          1.6719    0.3201    1.2800 H         1 <0>         0.0753
      5 C4          1.1306   -1.7441    0.9856 C.3       1 <0>        -0.1828
      6 O1          0.0101   -0.1492    2.4144 O.3       1 <0>        -0.2995
      7 C5          0.7140   -0.0364    3.5689 C.ar      1 <0>         0.1613
      8 C6          2.0945   -0.1605    3.5578 C.ar      1 <0>        -0.2158
      9 C7          2.8100   -0.0461    4.7338 C.ar      1 <0>        -0.0648
     10 C8          2.1570    0.1936    5.9322 C.ar      1 <0>        -0.1616
     11 C9          0.7856    0.3201    5.9638 C.ar      1 <0>        -0.0607
     12 C10         0.0482    0.2122    4.7795 C.ar      1 <0>        -0.1125
     13 C11        -1.4144    0.3523    4.8038 C.2       1 <0>         0.0026
     14 C12        -2.0503    0.5914    5.9704 C.2       1 <0>        -0.2235
     15 C13        -3.5058    0.7308    5.9946 C.2       1 <0>         0.5571
     16 O2         -4.1440    0.6313    4.9628 O.2       1 <0>        -0.5370
     17 N1         -4.1407    0.9695    7.1592 N.am      1 <0>        -0.6203
     18 C14        -3.3727    1.0893    8.4010 C.3       1 <0>         0.0769
     19 C15        -5.5988    1.1092    7.1834 C.3       1 <0>         0.1503
     20 H2         -5.9920    0.9902    6.1738 H         1 <0>         0.1193
     21 C16        -5.9697    2.4950    7.7152 C.3       1 <0>        -0.1522
     22 C17        -6.1989    0.0361    8.0941 C.3       1 <0>        -0.6317
     23 S1         -5.7593   -1.6070    7.4637 S.o2      1 <0>         2.4137
     24 O3         -6.3852   -1.7861    6.2006 O.2       1 <0>        -0.9282
     25 O4         -4.3508   -1.7654    7.5655 O.2       1 <0>        -0.9248
     26 C18        -6.5497   -2.7194    8.6587 C.3       1 <0>        -0.6613
     27 H3          0.6075    2.2559    0.2066 H         1 <0>         0.0523
     28 H4         -0.9404    2.0746   -0.6532 H         1 <0>         0.0591
     29 H5         -0.8797    1.8986    1.1170 H         1 <0>         0.0620
     30 H6         -1.0275   -0.3139    0.0072 H         1 <0>         0.0767
     31 H7          0.4597    0.0434   -0.9032 H         1 <0>         0.0832
     32 H8          1.7041   -1.8405    0.0637 H         1 <0>         0.0739
     33 H9          1.7293   -2.0983    1.8247 H         1 <0>         0.0636
     34 H10         0.2207   -2.3398    0.9114 H         1 <0>         0.0701
     35 H11         2.6115   -0.3474    2.6282 H         1 <0>         0.1334
     36 H12         3.8854   -0.1444    4.7192 H         1 <0>         0.1272
     37 H13         2.7260    0.2814    6.8460 H         1 <0>         0.1278
     38 H14         0.2810    0.5065    6.9003 H         1 <0>         0.1337
     39 H15        -1.9806    0.2640    3.8884 H         1 <0>         0.1388
     40 H16        -1.4841    0.6797    6.8859 H         1 <0>         0.1318
     41 H17        -3.0879    2.1303    8.5531 H         1 <0>         0.0593
     42 H18        -3.9828    0.7533    9.2394 H         1 <0>         0.0689
     43 H19        -2.4759    0.4733    8.3344 H         1 <0>         0.0837
     44 H20        -7.0545    2.5990    7.7332 H         1 <0>         0.0724
     45 H21        -5.5765    2.6140    8.7248 H         1 <0>         0.0632
     46 H22        -5.5421    3.2595    7.0664 H         1 <0>         0.0681
     47 H23        -5.8057    0.1551    9.1038 H         1 <0>         0.1361
     48 H24        -7.2838    0.1401    8.1121 H         1 <0>         0.1446
     49 H25        -7.6255   -2.5439    8.6621 H         1 <0>         0.1274
     50 H26        -6.3512   -3.7539    8.3785 H         1 <0>         0.1309
     51 H27        -6.1474   -2.5289    9.6537 H         1 <0>         0.1274
@<TRIPOS>BOND
     1    1    2 1
     2    1   27 1
     3    1   28 1
     4    1   29 1
     5    2    3 1
     6    2   30 1
     7    2   31 1
     8    3    4 1
     9    3    5 1
    10    3    6 1
    11    5   32 1
    12    5   33 1
    13    5   34 1
    14    6    7 1
    15    7   12 ar
    16    7    8 ar
    17    8    9 ar
    18    8   35 1
    19    9   10 ar
    20    9   36 1
    21   10   11 ar
    22   10   37 1
    23   11   12 ar
    24   11   38 1
    25   12   13 1
    26   13   14 2
    27   13   39 1
    28   14   15 1
    29   14   40 1
    30   15   16 2
    31   15   17 am
    32   17   18 1
    33   17   19 1
    34   18   41 1
    35   18   42 1
    36   18   43 1
    37   19   20 1
    38   19   21 1
    39   19   22 1
    40   21   44 1
    41   21   45 1
    42   21   46 1
    43   22   23 1
    44   22   47 1
    45   22   48 1
    46   23   24 2
    47   23   25 2
    48   23   26 1
    49   26   49 1
    50   26   50 1
    51   26   51 1
@<TRIPOS>MOLECULE
ZINC08852480
   52    53     0     0     0
SMALL
USER_CHARGES
1-(4-bromophenyl)ethylcarbamoylmethyl 4-(2,5-dimethylphenyl)-4-oxo-butanoate
@<TRIPOS>ATOM
      1 C1          2.7723   -0.5885   -8.8077 C.3       1 <0>        -0.1159
      2 C2          1.4755    0.1744   -8.7231 C.ar      1 <0>        -0.1058
      3 C3          0.6794    0.3095   -9.8475 C.ar      1 <0>        -0.0813
      4 C4         -0.5129    1.0086   -9.7801 C.ar      1 <0>        -0.1324
      5 C5         -0.9173    1.5762   -8.5901 C.ar      1 <0>        -0.0265
      6 C6         -0.1190    1.4438   -7.4497 C.ar      1 <0>        -0.1734
      7 C7          1.0874    0.7402   -7.5273 C.ar      1 <0>        -0.0692
      8 C8         -0.5429    2.0469   -6.1760 C.2       1 <0>         0.3975
      9 O1         -1.5319    2.7473   -6.1363 O.2       1 <0>        -0.4427
     10 C9          0.2521    1.7939   -4.9210 C.3       1 <0>        -0.1455
     11 C10        -0.3980    2.5307   -3.7482 C.3       1 <0>        -0.1058
     12 C11         0.3970    2.2777   -2.4932 C.2       1 <0>         0.4669
     13 O2          1.3825    1.5798   -2.5328 O.2       1 <0>        -0.5073
     14 O3          0.0104    2.8277   -1.3315 O.3       1 <0>        -0.3299
     15 C12         0.8238    2.5410   -0.1634 C.3       1 <0>         0.0476
     16 C13         0.2403    3.2382    1.0385 C.2       1 <0>         0.5179
     17 O4         -0.7624    3.9106    0.9221 O.2       1 <0>        -0.5094
     18 N1          0.8327    3.1146    2.2428 N.am      1 <0>        -0.7234
     19 C14         0.2654    3.7924    3.4111 C.3       1 <0>         0.1851
     20 H1         -0.1595    4.7485    3.1058 H         1 <0>         0.1033
     21 C15        -0.8312    2.9195    4.0245 C.3       1 <0>        -0.1609
     22 C16         1.3497    4.0274    4.4311 C.ar      1 <0>        -0.0794
     23 C17         2.2994    3.0510    4.6674 C.ar      1 <0>        -0.1095
     24 C18         3.2968    3.2680    5.5993 C.ar      1 <0>        -0.0853
     25 C19         3.3385    4.4582    6.3031 C.ar      1 <0>        -0.0892
     26 C20         2.3849    5.4327    6.0700 C.ar      1 <0>        -0.0847
     27 C21         1.3909    5.2169    5.1341 C.ar      1 <0>        -0.0994
     28 Br1         4.6983    4.7525    7.5838 Br        1 <0>        -0.0452
     29 C22        -2.2164    2.3367   -8.5188 C.3       1 <0>        -0.1247
     30 H2          3.5790    0.0945   -9.0737 H         1 <0>         0.0724
     31 H3          2.9878   -1.0469   -7.8425 H         1 <0>         0.0688
     32 H4          2.6881   -1.3650   -9.5680 H         1 <0>         0.0685
     33 H5          0.9907   -0.1327  -10.7823 H         1 <0>         0.1279
     34 H6         -1.1282    1.1103  -10.6619 H         1 <0>         0.1299
     35 H7          1.7114    0.6372   -6.6518 H         1 <0>         0.1329
     36 H8          1.1871    2.1258   -5.0461 H         1 <0>         0.0986
     37 H9          0.2712    0.7242   -4.7124 H         1 <0>         0.1105
     38 H10        -1.4171    2.1688   -3.6118 H         1 <0>         0.1176
     39 H11        -0.4171    3.6004   -3.9568 H         1 <0>         0.1172
     40 H12         0.8401    1.4655    0.0129 H         1 <0>         0.1043
     41 H13         1.8401    2.8970   -0.3321 H         1 <0>         0.1041
     42 H14         1.6346    2.5769    2.3359 H         1 <0>         0.4024
     43 H15        -1.2533    3.4238    4.8939 H         1 <0>         0.0723
     44 H16        -1.6155    2.7495    3.2868 H         1 <0>         0.0692
     45 H17        -0.4063    1.9633    4.3299 H         1 <0>         0.0616
     46 H18         2.2643    2.1202    4.1209 H         1 <0>         0.1307
     47 H19         4.0410    2.5067    5.7812 H         1 <0>         0.1361
     48 H20         2.4168    6.3620    6.6195 H         1 <0>         0.1370
     49 H21         0.6461    5.9776    4.9524 H         1 <0>         0.1365
     50 H22        -2.0197    3.4031   -8.6299 H         1 <0>         0.0772
     51 H23        -2.8768    2.0037   -9.3194 H         1 <0>         0.0612
     52 H24        -2.6922    2.1535   -7.5554 H         1 <0>         0.0914
@<TRIPOS>BOND
     1    1    2 1
     2    1   30 1
     3    1   31 1
     4    1   32 1
     5    2    7 ar
     6    2    3 ar
     7    3    4 ar
     8    3   33 1
     9    4    5 ar
    10    4   34 1
    11    5    6 ar
    12    5   29 1
    13    6    7 ar
    14    6    8 1
    15    7   35 1
    16    8    9 2
    17    8   10 1
    18   10   11 1
    19   10   36 1
    20   10   37 1
    21   11   12 1
    22   11   38 1
    23   11   39 1
    24   12   13 2
    25   12   14 1
    26   14   15 1
    27   15   16 1
    28   15   40 1
    29   15   41 1
    30   16   17 2
    31   16   18 am
    32   18   19 1
    33   18   42 1
    34   19   20 1
    35   19   21 1
    36   19   22 1
    37   21   43 1
    38   21   44 1
    39   21   45 1
    40   22   27 ar
    41   22   23 ar
    42   23   24 ar
    43   23   46 1
    44   24   25 ar
    45   24   47 1
    46   25   26 ar
    47   25   28 1
    48   26   27 ar
    49   26   48 1
    50   27   49 1
    51   29   50 1
    52   29   51 1
    53   29   52 1
@<TRIPOS>MOLECULE
ZINC09748299
   58    61     0     0     0
SMALL
USER_CHARGES
N-[(1-benzyl-3,5-dimethyl-pyrazol-4-yl)methyl]-3-[5-(2-fluorophenyl)-2-furyl]propanamide
@<TRIPOS>ATOM
      1 C1         -2.3360   -0.4268    1.5432 C.3       1 <0>        -0.0766
      2 C2         -1.7433    0.9047    1.9263 C.2       1 <0>         0.0936
      3 C3         -0.7181    1.5718    1.2479 C.2       1 <0>        -0.2657
      4 C4         -0.4675    2.7279    1.9049 C.2       1 <0>         0.1143
      5 N1         -1.3104    2.7943    2.9567 N.pl3     1 <0>        -0.3618
      6 N2         -2.0991    1.6366    2.9508 N.2       1 <0>        -0.2904
      7 C5         -1.3837    3.8821    3.9352 C.3       1 <0>         0.1738
      8 C6         -0.4449    3.5937    5.0782 C.ar      1 <0>        -0.1199
      9 C7         -0.8933    2.8899    6.1802 C.ar      1 <0>        -0.0899
     10 C8         -0.0309    2.6211    7.2265 C.ar      1 <0>        -0.1210
     11 C9          1.2772    3.0654    7.1756 C.ar      1 <0>        -0.1078
     12 C10         1.7242    3.7738    6.0759 C.ar      1 <0>        -0.1214
     13 C11         0.8632    4.0380    5.0272 C.ar      1 <0>        -0.1034
     14 C12         0.5653    3.7585    1.5276 C.3       1 <0>        -0.1020
     15 C13        -0.0127    1.0858    0.0080 C.3       1 <0>         0.2033
     16 N3         -0.7213    1.5711   -1.1789 N.am      1 <0>        -0.7255
     17 C14        -0.2681    1.2584   -2.4090 C.2       1 <0>         0.5140
     18 O1          0.7262    0.5752   -2.5335 O.2       1 <0>        -0.5396
     19 C15        -0.9970    1.7576   -3.6299 C.3       1 <0>        -0.1392
     20 C16        -0.2809    1.2642   -4.8887 C.3       1 <0>        -0.0233
     21 C17        -1.0097    1.7634   -6.1096 C.2       1 <0>        -0.0020
     22 C18        -0.7735    2.9283   -6.7439 C.2       1 <0>        -0.2030
     23 C19        -1.6706    2.9969   -7.8288 C.2       1 <0>        -0.1736
     24 C20        -2.4187    1.8623   -7.7908 C.2       1 <0>         0.0144
     25 O2         -2.0067    1.1235   -6.7428 O.3       1 <0>        -0.1636
     26 C21        -3.4963    1.5020   -8.7356 C.ar      1 <0>        -0.0540
     27 C22        -3.5078    0.2436   -9.3394 C.ar      1 <0>        -0.0676
     28 C23        -4.5168   -0.0868  -10.2201 C.ar      1 <0>        -0.1286
     29 C24        -5.5174    0.8254  -10.5062 C.ar      1 <0>        -0.0798
     30 C25        -5.5140    2.0746   -9.9126 C.ar      1 <0>        -0.1529
     31 C26        -4.5121    2.4177   -9.0245 C.ar      1 <0>         0.1230
     32 F1         -4.5120    3.6361   -8.4409 F         1 <0>        -0.1298
     33 H1         -1.7814   -1.2263    2.0344 H         1 <0>         0.0787
     34 H2         -3.3796   -0.4634    1.8557 H         1 <0>         0.0742
     35 H3         -2.2758   -0.5538    0.4623 H         1 <0>         0.0773
     36 H4         -1.0981    4.8197    3.4582 H         1 <0>         0.1020
     37 H5         -2.4028    3.9626    4.3134 H         1 <0>         0.1055
     38 H6         -1.9165    2.5467    6.2220 H         1 <0>         0.1251
     39 H7         -0.3802    2.0680    8.0858 H         1 <0>         0.1257
     40 H8          1.9498    2.8593    7.9950 H         1 <0>         0.1251
     41 H9          2.7460    4.1211    6.0362 H         1 <0>         0.1258
     42 H10         1.2123    4.5917    4.1683 H         1 <0>         0.1229
     43 H11         0.1196    4.4893    0.8528 H         1 <0>         0.0836
     44 H12         0.9204    4.2629    2.4262 H         1 <0>         0.0734
     45 H13         1.4028    3.2686    1.0309 H         1 <0>         0.0890
     46 H14         0.0021   -0.0041    0.0020 H         1 <0>         0.0750
     47 H15         1.0099    1.4631    0.0003 H         1 <0>         0.0716
     48 H16        -1.5165    2.1175   -1.0793 H         1 <0>         0.4012
     49 H17        -2.0196    1.3803   -3.6222 H         1 <0>         0.0978
     50 H18        -1.0118    2.8475   -3.6239 H         1 <0>         0.0991
     51 H19         0.7417    1.6415   -4.8965 H         1 <0>         0.1047
     52 H20        -0.2661    0.1743   -4.8947 H         1 <0>         0.0914
     53 H21        -0.0347    3.6683   -6.4737 H         1 <0>         0.1526
     54 H22        -1.7515    3.7982   -8.5484 H         1 <0>         0.1500
     55 H23        -2.7280   -0.4699   -9.1177 H         1 <0>         0.1372
     56 H24        -4.5261   -1.0603  -10.6875 H         1 <0>         0.1365
     57 H25        -6.3046    0.5607  -11.1966 H         1 <0>         0.1381
     58 H26        -6.2979    2.7817  -10.1403 H         1 <0>         0.1425
@<TRIPOS>BOND
     1    1    2 1
     2    1   33 1
     3    1   34 1
     4    1   35 1
     5    2    6 2
     6    2    3 1
     7    3    4 2
     8    3   15 1
     9    4    5 1
    10    4   14 1
    11    5    6 1
    12    5    7 1
    13    7    8 1
    14    7   36 1
    15    7   37 1
    16    8   13 ar
    17    8    9 ar
    18    9   10 ar
    19    9   38 1
    20   10   11 ar
    21   10   39 1
    22   11   12 ar
    23   11   40 1
    24   12   13 ar
    25   12   41 1
    26   13   42 1
    27   14   43 1
    28   14   44 1
    29   14   45 1
    30   15   16 1
    31   15   46 1
    32   15   47 1
    33   16   17 am
    34   16   48 1
    35   17   18 2
    36   17   19 1
    37   19   20 1
    38   19   49 1
    39   19   50 1
    40   20   21 1
    41   20   51 1
    42   20   52 1
    43   21   25 1
    44   21   22 2
    45   22   23 1
    46   22   53 1
    47   23   24 2
    48   23   54 1
    49   24   25 1
    50   24   26 1
    51   26   31 ar
    52   26   27 ar
    53   27   28 ar
    54   27   55 1
    55   28   29 ar
    56   28   56 1
    57   29   30 ar
    58   29   57 1
    59   30   31 ar
    60   30   58 1
    61   31   32 1
@<TRIPOS>MOLECULE
ZINC22142085
   54    56     0     0     0
SMALL
USER_CHARGES
[2-[2-oxo-2-(p-tolylamino)ethyl]thiazol-4-yl]methyl 3-(p-tolylsulfanyl)propanoate
@<TRIPOS>ATOM
      1 C1          4.8057   11.1948    7.0139 C.3       1 <0>        -0.1170
      2 C2          4.7716   10.6866    5.5956 C.ar      1 <0>        -0.0995
      3 C3          5.1361    9.3811    5.3215 C.ar      1 <0>        -0.1029
      4 C4          5.1059    8.9124    4.0227 C.ar      1 <0>        -0.1181
      5 C5          4.7086    9.7534    2.9916 C.ar      1 <0>         0.1403
      6 C6          4.3478   11.0653    3.2695 C.ar      1 <0>        -0.1394
      7 C7          4.3755   11.5266    4.5710 C.ar      1 <0>        -0.1035
      8 N1          4.6774    9.2817    1.6746 N.am      1 <0>        -0.6833
      9 C8          4.3299    8.0038    1.4246 C.2       1 <0>         0.5198
     10 O1          4.1256    7.2398    2.3442 O.2       1 <0>        -0.5093
     11 C9          4.1950    7.5240    0.0024 C.3       1 <0>        -0.0515
     12 C10         3.8003    6.0696   -0.0019 C.2       1 <0>         0.1064
     13 N2          2.5983    5.5412   -0.0061 N.2       1 <0>        -0.4915
     14 C11         2.4217    4.2365   -0.0049 C.2       1 <0>         0.0477
     15 C12         3.5186    3.4368   -0.0108 C.2       1 <0>        -0.1800
     16 S1          4.8186    4.6630   -0.0099 S.3       1 <0>         0.0732
     17 C13         1.0355    3.6453   -0.0032 C.3       1 <0>         0.1441
     18 O2          1.1273    2.1962   -0.0087 O.3       1 <0>        -0.3534
     19 C14        -0.0277    1.5124   -0.0080 C.2       1 <0>         0.4737
     20 O3         -1.0806    2.1050   -0.0079 O.2       1 <0>        -0.5002
     21 C15        -0.0112    0.0055   -0.0136 C.3       1 <0>        -0.0991
     22 C16        -1.4480   -0.5203   -0.0115 C.3       1 <0>        -0.1044
     23 S2         -1.4282   -2.3342   -0.0182 S.3       1 <0>        -0.1069
     24 C17        -3.1331   -2.7791   -0.0151 C.ar      1 <0>        -0.0899
     25 C18        -4.1107   -1.7915   -0.0030 C.ar      1 <0>        -0.1272
     26 C19        -5.4458   -2.1439   -0.0064 C.ar      1 <0>        -0.1016
     27 C20        -5.8106   -3.4779   -0.0098 C.ar      1 <0>        -0.0875
     28 C21        -4.8404   -4.4636   -0.0165 C.ar      1 <0>        -0.1022
     29 C22        -3.5034   -4.1186   -0.0190 C.ar      1 <0>        -0.0940
     30 C23        -7.2688   -3.8585   -0.0067 C.3       1 <0>        -0.1185
     31 H1          5.1433   10.3902    7.6837 H         1 <0>         0.0653
     32 H2          3.7979   11.5206    7.3110 H         1 <0>         0.0695
     33 H3          5.5008   12.0446    7.0823 H         1 <0>         0.0698
     34 H4          5.4450    8.7275    6.1239 H         1 <0>         0.1246
     35 H5          5.3907    7.8927    3.8093 H         1 <0>         0.1371
     36 H6          4.0423   11.7231    2.4692 H         1 <0>         0.1261
     37 H7          4.0915   12.5457    4.7883 H         1 <0>         0.1259
     38 H8          4.9365    9.9539    0.8433 H         1 <0>         0.4369
     39 H9          3.4230    8.1149   -0.5122 H         1 <0>         0.1354
     40 H10         5.1566    7.6445   -0.5180 H         1 <0>         0.1289
     41 H11         3.5867    2.3590   -0.0150 H         1 <0>         0.2047
     42 H12         0.4973    3.9752    0.8976 H         1 <0>         0.0939
     43 H13         0.4923    3.9817   -0.8986 H         1 <0>         0.0940
     44 H14         0.5088   -0.3521   -0.9145 H         1 <0>         0.1217
     45 H15         0.5139   -0.3588    0.8817 H         1 <0>         0.1216
     46 H16        -1.9680   -0.1626    0.8894 H         1 <0>         0.1004
     47 H17        -1.9731   -0.1561   -0.9068 H         1 <0>         0.1005
     48 H18        -3.8266   -0.7495    0.0045 H         1 <0>         0.1249
     49 H19        -6.2061   -1.3769   -0.0015 H         1 <0>         0.1263
     50 H20        -5.1289   -5.5043   -0.0196 H         1 <0>         0.1289
     51 H21        -2.7463   -4.8888   -0.0242 H         1 <0>         0.1289
     52 H22        -7.3617   -4.9546   -0.0101 H         1 <0>         0.0672
     53 H23        -7.7572   -3.4463   -0.9020 H         1 <0>         0.0713
     54 H24        -7.7518   -3.4524    0.8943 H         1 <0>         0.0713
@<TRIPOS>BOND
     1    1    2 1
     2    1   31 1
     3    1   32 1
     4    1   33 1
     5    2    7 ar
     6    2    3 ar
     7    3    4 ar
     8    3   34 1
     9    4    5 ar
    10    4   35 1
    11    5    6 ar
    12    5    8 1
    13    6    7 ar
    14    6   36 1
    15    7   37 1
    16    8    9 am
    17    8   38 1
    18    9   10 2
    19    9   11 1
    20   11   12 1
    21   11   39 1
    22   11   40 1
    23   12   16 1
    24   12   13 2
    25   13   14 1
    26   14   15 2
    27   14   17 1
    28   15   16 1
    29   15   41 1
    30   17   18 1
    31   17   42 1
    32   17   43 1
    33   18   19 1
    34   19   20 2
    35   19   21 1
    36   21   22 1
    37   21   44 1
    38   21   45 1
    39   22   23 1
    40   22   46 1
    41   22   47 1
    42   23   24 1
    43   24   29 ar
    44   24   25 ar
    45   25   26 ar
    46   25   48 1
    47   26   27 ar
    48   26   49 1
    49   27   28 ar
    50   27   30 1
    51   28   29 ar
    52   28   50 1
    53   29   51 1
    54   30   52 1
    55   30   53 1
    56   30   54 1
@<TRIPOS>MOLECULE
ZINC29170642
   53    55     0     0     0
SMALL
USER_CHARGES
[2-[[(1R)-2-methyl-1-(2-thienyl)propyl]amino]-2-oxo-ethyl] 2-(4,5-dihydrothiazol-2-ylsulfanylmethyl)benzoate
@<TRIPOS>ATOM
      1 C1         -6.5954   -0.9317    7.8449 C.3       1 <0>        -0.1412
      2 C2         -5.5754   -1.1938    8.9548 C.3       1 <0>        -0.0993
      3 C3         -6.2771   -1.8431   10.1493 C.3       1 <0>        -0.1487
      4 C4         -4.4839   -2.1306    8.4334 C.3       1 <0>         0.2434
      5 H1         -4.9125   -3.0831    8.0885 H         1 <0>         0.1104
      6 C5         -3.4792   -2.3888    9.5266 C.2       1 <0>        -0.1538
      7 C6         -3.3710   -3.4593   10.3511 C.2       1 <0>        -0.1409
      8 C7         -2.3560   -3.4830   11.2891 C.2       1 <0>        -0.1556
      9 C8         -1.5054   -2.4303   11.3639 C.2       1 <0>        -0.1648
     10 S1         -2.1276   -1.3606   10.0771 S.3       1 <0>         0.0368
     11 N1         -3.8120   -1.5089    7.2896 N.am      1 <0>        -0.7357
     12 C9         -4.3314   -1.6358    6.0525 C.2       1 <0>         0.5215
     13 O1         -5.3550   -2.2647    5.8861 O.2       1 <0>        -0.5091
     14 C10        -3.6403   -0.9962    4.8759 C.3       1 <0>         0.0474
     15 O2         -4.3899   -1.2750    3.6640 O.3       1 <0>        -0.3259
     16 C11        -3.9028   -0.7707    2.5138 C.2       1 <0>         0.5050
     17 O3         -2.8797   -0.1159    2.5230 O.2       1 <0>        -0.4848
     18 C12        -4.6127   -1.0139    1.2414 C.ar      1 <0>        -0.1128
     19 C13        -5.7163   -1.8689    1.2063 C.ar      1 <0>        -0.0565
     20 C14        -6.3748   -2.0912    0.0150 C.ar      1 <0>        -0.1243
     21 C15        -5.9441   -1.4692   -1.1439 C.ar      1 <0>        -0.0783
     22 C16        -4.8550   -0.6166   -1.1151 C.ar      1 <0>        -0.1131
     23 C17        -4.1836   -0.3898    0.0686 C.ar      1 <0>        -0.0195
     24 C18        -2.9936    0.5344    0.0968 C.3       1 <0>        -0.0854
     25 S2         -1.4713   -0.4386   -0.0120 S.3       1 <0>         0.0498
     26 C19        -0.2766    0.8554    0.0409 C.2       1 <0>         0.1851
     27 N2         -0.5077    2.1279    0.1330 N.2       1 <0>        -0.5403
     28 C20         0.5604    3.1003    0.1672 C.3       1 <0>         0.0392
     29 C21         1.9609    2.4536    0.0830 C.3       1 <0>        -0.1108
     30 S3          1.4955    0.6823   -0.0224 S.3       1 <0>        -0.1817
     31 H2         -6.0909   -0.4649    6.9861 H         1 <0>         0.0526
     32 H3         -7.3801   -0.2581    8.2197 H         1 <0>         0.0523
     33 H4         -7.0484   -1.8837    7.5310 H         1 <0>         0.0668
     34 H5         -5.1223   -0.2419    9.2688 H         1 <0>         0.0748
     35 H6         -5.5438   -2.0315   10.9473 H         1 <0>         0.0589
     36 H7         -6.7301   -2.7950    9.8353 H         1 <0>         0.0587
     37 H8         -7.0619   -1.1695   10.5241 H         1 <0>         0.0609
     38 H9         -4.0657   -4.2826   10.2743 H         1 <0>         0.1352
     39 H10        -2.2452   -4.3256   11.9555 H         1 <0>         0.1369
     40 H11        -0.6686   -2.2780   12.0294 H         1 <0>         0.1876
     41 H12        -2.8836   -0.9385    7.4405 H         1 <0>         0.4218
     42 H13        -3.5844    0.0915    5.0304 H         1 <0>         0.1041
     43 H14        -2.6238   -1.4057    4.7807 H         1 <0>         0.1065
     44 H15        -6.0536   -2.3546    2.1100 H         1 <0>         0.1453
     45 H16        -7.2287   -2.7519   -0.0136 H         1 <0>         0.1366
     46 H17        -6.4634   -1.6468   -2.0741 H         1 <0>         0.1357
     47 H18        -4.5271   -0.1307   -2.0222 H         1 <0>         0.1381
     48 H19        -3.0474    1.2276   -0.7556 H         1 <0>         0.1038
     49 H20        -2.9963    1.1072    1.0359 H         1 <0>         0.1320
     50 H21         0.4565    3.7892   -0.6841 H         1 <0>         0.1044
     51 H22         0.5087    3.6689    1.1074 H         1 <0>         0.1042
     52 H23         2.4856    2.8299   -0.8076 H         1 <0>         0.1136
     53 H24         2.5378    2.7096    0.9839 H         1 <0>         0.1131
@<TRIPOS>BOND
     1    1    2 1
     2    1   31 1
     3    1   32 1
     4    1   33 1
     5    2    3 1
     6    2    4 1
     7    2   34 1
     8    3   35 1
     9    3   36 1
    10    3   37 1
    11    4    5 1
    12    4    6 1
    13    4   11 1
    14    6   10 1
    15    6    7 2
    16    7    8 1
    17    7   38 1
    18    8    9 2
    19    8   39 1
    20    9   10 1
    21    9   40 1
    22   11   12 am
    23   11   41 1
    24   12   13 2
    25   12   14 1
    26   14   15 1
    27   14   42 1
    28   14   43 1
    29   15   16 1
    30   16   17 2
    31   16   18 1
    32   18   23 ar
    33   18   19 ar
    34   19   20 ar
    35   19   44 1
    36   20   21 ar
    37   20   45 1
    38   21   22 ar
    39   21   46 1
    40   22   23 ar
    41   22   47 1
    42   23   24 1
    43   24   25 1
    44   24   48 1
    45   24   49 1
    46   25   26 1
    47   26   30 1
    48   26   27 2
    49   27   28 1
    50   28   29 1
    51   28   50 1
    52   28   51 1
    53   29   30 1
    54   29   52 1
    55   29   53 1
@<TRIPOS>MOLECULE
ZINC32881744
   46    48     0     0     0
SMALL
USER_CHARGES

@<TRIPOS>ATOM
      1 C1         -0.0199    1.4492   -0.0087 C.3       1 <0>         0.0324
      2 O1         -0.0053    0.0203   -0.0071 O.3       1 <0>        -0.3855
      3 C2         -1.3048   -0.5742    0.0018 C.3       1 <0>         0.0456
      4 C3         -1.1684   -2.0982    0.0027 C.3       1 <0>         0.1096
      5 N1         -2.5006   -2.7076    0.0118 N.pl3     1 <0>        -0.4666
      6 C4         -3.2435   -3.0433    1.1326 C.ar      1 <0>         0.0588
      7 C5         -3.0243   -2.9378    2.4976 C.ar      1 <0>        -0.0924
      8 C6         -3.9870   -3.3749    3.3839 C.ar      1 <0>        -0.0911
      9 C7         -5.1751   -3.9209    2.9182 C.ar      1 <0>        -0.0381
     10 C8         -5.4091   -4.0336    1.5649 C.ar      1 <0>        -0.0558
     11 C9         -4.4439   -3.5944    0.6551 C.ar      1 <0>         0.0698
     12 N2         -4.3830   -3.5717   -0.7021 N.2       1 <0>        -0.4910
     13 C10        -3.2447   -3.0457   -1.0830 C.2       1 <0>         0.2540
     14 S1         -2.7461   -2.8140   -2.7570 S.3       1 <0>         0.0825
     15 C11        -4.1430   -3.4511   -3.7232 C.3       1 <0>        -0.1489
     16 C12        -3.8427   -3.3105   -5.1932 C.2       1 <0>         0.5423
     17 O2         -2.7899   -2.8281   -5.5537 O.2       1 <0>        -0.4923
     18 N3         -4.7440   -3.7209   -6.1074 N.am      1 <0>        -0.6681
     19 C13        -4.5172   -3.4859   -7.4680 C.ar      1 <0>         0.2005
     20 C14        -3.6989   -2.4366   -7.8661 C.ar      1 <0>        -0.1337
     21 C15        -3.4771   -2.2073   -9.2096 C.ar      1 <0>        -0.0626
     22 C16        -4.0691   -3.0209  -10.1585 C.ar      1 <0>        -0.1362
     23 C17        -4.8845   -4.0660   -9.7655 C.ar      1 <0>        -0.0504
     24 C18        -5.1051   -4.3047   -8.4229 C.ar      1 <0>        -0.2174
     25 C19        -5.9882   -5.4485   -7.9953 C.3       1 <0>         0.5082
     26 F1         -6.4597   -6.1221   -9.1272 F         1 <0>        -0.1704
     27 F2         -5.2529   -6.3329   -7.1989 F         1 <0>        -0.1740
     28 F3         -7.0720   -4.9523   -7.2628 F         1 <0>        -0.1786
     29 Cl1        -6.3746   -4.4660    4.0485 Cl        1 <0>        -0.0591
     30 H1          1.0039    1.8230   -0.0156 H         1 <0>         0.0932
     31 H2         -0.5430    1.8062   -0.8959 H         1 <0>         0.0461
     32 H3         -0.5318    1.8083    0.8841 H         1 <0>         0.0444
     33 H4         -1.8433   -0.2571    0.8948 H         1 <0>         0.0579
     34 H5         -1.8545   -0.2592   -0.8852 H         1 <0>         0.0617
     35 H6         -0.6298   -2.4153   -0.8903 H         1 <0>         0.1091
     36 H7         -0.6186   -2.4132    0.8897 H         1 <0>         0.1076
     37 H8         -2.1016   -2.5146    2.8663 H         1 <0>         0.1350
     38 H9         -3.8150   -3.2921    4.4469 H         1 <0>         0.1443
     39 H10        -6.3353   -4.4599    1.2088 H         1 <0>         0.1423
     40 H11        -4.3010   -4.5026   -3.4835 H         1 <0>         0.1350
     41 H12        -5.0416   -2.8840   -3.4800 H         1 <0>         0.1358
     42 H13        -5.5499   -4.1792   -5.8221 H         1 <0>         0.4167
     43 H14        -3.2369   -1.8005   -7.1256 H         1 <0>         0.1576
     44 H15        -2.8409   -1.3915   -9.5198 H         1 <0>         0.1390
     45 H16        -3.8943   -2.8393  -11.2087 H         1 <0>         0.1386
     46 H17        -5.3457   -4.6994  -10.5089 H         1 <0>         0.1441
@<TRIPOS>BOND
     1    1    2 1
     2    1   30 1
     3    1   31 1
     4    1   32 1
     5    2    3 1
     6    3    4 1
     7    3   33 1
     8    3   34 1
     9    4    5 1
    10    4   35 1
    11    4   36 1
    12    5   13 1
    13    5    6 1
    14    6   11 ar
    15    6    7 ar
    16    7    8 ar
    17    7   37 1
    18    8    9 ar
    19    8   38 1
    20    9   10 ar
    21    9   29 1
    22   10   11 ar
    23   10   39 1
    24   11   12 1
    25   12   13 2
    26   13   14 1
    27   14   15 1
    28   15   16 1
    29   15   40 1
    30   15   41 1
    31   16   17 2
    32   16   18 am
    33   18   19 1
    34   18   42 1
    35   19   24 ar
    36   19   20 ar
    37   20   21 ar
    38   20   43 1
    39   21   22 ar
    40   21   44 1
    41   22   23 ar
    42   22   45 1
    43   23   24 ar
    44   23   46 1
    45   24   25 1
    46   25   26 1
    47   25   27 1
    48   25   28 1
@<TRIPOS>MOLECULE
ZINC11028361
   50    52     0     0     0
SMALL
USER_CHARGES
[2-[acetyl-(4-ethylphenyl)-amino]thiazol-4-yl]methyl 2-(2-chloro-6-fluoro-phenyl)acetate
@<TRIPOS>ATOM
      1 C1          0.5107  -12.5838    3.6701 C.3       1 <0>        -0.1491
      2 C2         -0.2224  -12.1469    4.9400 C.3       1 <0>        -0.0901
      3 C3         -0.1268  -10.6500    5.0855 C.ar      1 <0>        -0.0624
      4 C4         -1.0959   -9.8389    4.5241 C.ar      1 <0>        -0.1026
      5 C5         -1.0111   -8.4667    4.6557 C.ar      1 <0>        -0.1002
      6 C6          0.0488   -7.9017    5.3526 C.ar      1 <0>         0.0976
      7 C7          1.0235   -8.7186    5.9102 C.ar      1 <0>        -0.0989
      8 C8          0.9297  -10.0904    5.7804 C.ar      1 <0>        -0.1041
      9 N1          0.1377   -6.5104    5.4878 N.am      1 <0>        -0.4674
     10 C9          0.4199   -5.7202    4.3780 C.2       1 <0>         0.3115
     11 N2          0.4507   -4.4052    4.2834 N.2       1 <0>        -0.5080
     12 C10         0.7387   -3.8087    3.1435 C.2       1 <0>         0.0745
     13 C11         0.9995   -4.5792    2.0590 C.2       1 <0>        -0.2047
     14 S1          0.8209   -6.2124    2.7617 S.3       1 <0>         0.0771
     15 C12         0.7711   -2.3052    3.0468 C.3       1 <0>         0.1477
     16 O1          1.1114   -1.9146    1.6903 O.3       1 <0>        -0.3535
     17 C13         1.1824   -0.5988    1.4346 C.2       1 <0>         0.4705
     18 O2          0.9673    0.2002    2.3151 O.2       1 <0>        -0.4896
     19 C14         1.5304   -0.1181    0.0494 C.3       1 <0>        -0.0772
     20 C15         1.5438    1.3887    0.0292 C.ar      1 <0>        -0.1094
     21 C16         0.3881    2.0877   -0.2757 C.ar      1 <0>         0.1295
     22 C17         0.4001    3.4720   -0.2878 C.ar      1 <0>        -0.1468
     23 C18         1.5684    4.1555   -0.0073 C.ar      1 <0>        -0.0704
     24 C19         2.7235    3.4578    0.2909 C.ar      1 <0>        -0.1183
     25 C20         2.7117    2.0741    0.3096 C.ar      1 <0>         0.0057
     26 Cl1         4.1630    1.1987    0.6854 Cl        1 <0>        -0.0497
     27 F1         -0.7521    1.4192   -0.5557 F         1 <0>        -0.1280
     28 C21        -0.0501   -5.9371    6.6930 C.2       1 <0>         0.5117
     29 O3         -0.0643   -4.7286    6.7941 O.2       1 <0>        -0.4662
     30 C22        -0.2426   -6.7978    7.9150 C.3       1 <0>        -0.1665
     31 H1          0.0541  -12.1047    2.8040 H         1 <0>         0.0574
     32 H2          1.5586  -12.2914    3.7367 H         1 <0>         0.0573
     33 H3          0.4415  -13.6665    3.5648 H         1 <0>         0.0614
     34 H4          0.2341  -12.6260    5.8061 H         1 <0>         0.0767
     35 H5         -1.2703  -12.4393    4.8734 H         1 <0>         0.0765
     36 H6         -1.9202  -10.2790    3.9825 H         1 <0>         0.1342
     37 H7         -1.7685   -7.8338    4.2173 H         1 <0>         0.1299
     38 H8          1.8516   -8.2819    6.4487 H         1 <0>         0.1319
     39 H9          1.6851  -10.7265    6.2177 H         1 <0>         0.1347
     40 H10         1.2482   -4.2867    1.0495 H         1 <0>         0.2066
     41 H11         1.5186   -1.9128    3.7362 H         1 <0>         0.0937
     42 H12        -0.2085   -1.9032    3.3057 H         1 <0>         0.0936
     43 H13         0.7879   -0.4844   -0.6595 H         1 <0>         0.1254
     44 H14         2.5150   -0.4939   -0.2290 H         1 <0>         0.1269
     45 H15        -0.5022    4.0179   -0.5208 H         1 <0>         0.1461
     46 H16         1.5787    5.2353   -0.0216 H         1 <0>         0.1469
     47 H17         3.6358    3.9927    0.5099 H         1 <0>         0.1446
     48 H18         0.7303   -7.0774    8.3194 H         1 <0>         0.1016
     49 H19        -0.8022   -6.2414    8.6669 H         1 <0>         0.1027
     50 H20        -0.7949   -7.6972    7.6427 H         1 <0>         0.0891
@<TRIPOS>BOND
     1    1    2 1
     2    1   31 1
     3    1   32 1
     4    1   33 1
     5    2    3 1
     6    2   34 1
     7    2   35 1
     8    3    8 ar
     9    3    4 ar
    10    4    5 ar
    11    4   36 1
    12    5    6 ar
    13    5   37 1
    14    6    7 ar
    15    6    9 1
    16    7    8 ar
    17    7   38 1
    18    8   39 1
    19    9   10 1
    20    9   28 am
    21   10   14 1
    22   10   11 2
    23   11   12 1
    24   12   13 2
    25   12   15 1
    26   13   14 1
    27   13   40 1
    28   15   16 1
    29   15   41 1
    30   15   42 1
    31   16   17 1
    32   17   18 2
    33   17   19 1
    34   19   20 1
    35   19   43 1
    36   19   44 1
    37   20   25 ar
    38   20   21 ar
    39   21   22 ar
    40   21   27 1
    41   22   23 ar
    42   22   45 1
    43   23   24 ar
    44   23   46 1
    45   24   25 ar
    46   24   47 1
    47   25   26 1
    48   28   29 2
    49   28   30 1
    50   30   48 1
    51   30   49 1
    52   30   50 1
@<TRIPOS>MOLECULE
ZINC19810116
   51    54     0     0     0
SMALL
USER_CHARGES
2-[[4-(4-ethoxyphenyl)-5-phenyl-1,2,4-triazol-3-yl]sulfanyl]-1-(4-fluorophenyl)ethanone
@<TRIPOS>ATOM
      1 C1         -0.1909   14.4356   -0.9350 C.3       1 <0>        -0.1562
      2 C2          0.7970   13.2828   -1.1250 C.3       1 <0>         0.0489
      3 O1          0.7736   12.4403    0.0290 O.3       1 <0>        -0.3076
      4 C3          1.6001   11.3609    0.0221 C.ar      1 <0>         0.1560
      5 C4          1.6274   10.5014    1.1107 C.ar      1 <0>        -0.1372
      6 C5          2.4663    9.4047    1.1039 C.ar      1 <0>        -0.0569
      7 C6          3.2828    9.1625    0.0077 C.ar      1 <0>         0.0559
      8 C7          3.2596   10.0262   -1.0788 C.ar      1 <0>        -0.0505
      9 C8          2.4162   11.1195   -1.0735 C.ar      1 <0>        -0.1968
     10 N1          4.1355    8.0481    0.0003 N.pl3     1 <0>        -0.4070
     11 C9          5.5130    8.0535   -0.0079 C.2       1 <0>         0.2375
     12 N2          5.9027    6.7996   -0.0185 N.2       1 <0>        -0.2638
     13 N3          4.8803    6.0213   -0.0127 N.2       1 <0>        -0.2864
     14 C10         3.7727    6.7294    0.0022 C.2       1 <0>         0.1528
     15 S1          2.1280    6.0975    0.0145 S.3       1 <0>         0.0742
     16 C11         2.4737    4.3209    0.0016 C.3       1 <0>        -0.1784
     17 C12         1.1751    3.5563    0.0099 C.2       1 <0>         0.4205
     18 O2          0.1198    4.1537    0.0232 O.2       1 <0>        -0.4324
     19 C13         1.1875    2.0863    0.0019 C.ar      1 <0>        -0.1788
     20 C14        -0.0166    1.3733    0.0096 C.ar      1 <0>        -0.0256
     21 C15         0.0021   -0.0041    0.0020 C.ar      1 <0>        -0.1662
     22 C16         1.2109   -0.6843   -0.0127 C.ar      1 <0>         0.1374
     23 C17         2.4081    0.0164   -0.0204 C.ar      1 <0>        -0.1652
     24 C18         2.4035    1.3938   -0.0129 C.ar      1 <0>        -0.0397
     25 F1          1.2223   -2.0353   -0.0192 F         1 <0>        -0.1302
     26 C19         6.3871    9.2454   -0.0108 C.ar      1 <0>        -0.0239
     27 C20         5.8634   10.4995    0.3076 C.ar      1 <0>        -0.1044
     28 C21         6.6858   11.6071    0.3081 C.ar      1 <0>        -0.1175
     29 C22         8.0245   11.4786   -0.0172 C.ar      1 <0>        -0.1014
     30 C23         8.5488   10.2393   -0.3389 C.ar      1 <0>        -0.1184
     31 C24         7.7386    9.1227   -0.3376 C.ar      1 <0>        -0.0727
     32 H1         -0.1729   15.0841   -1.8233 H         1 <0>         0.0824
     33 H2          0.0944   15.0205   -0.0481 H         1 <0>         0.0689
     34 H3         -1.2044   14.0309   -0.7969 H         1 <0>         0.0692
     35 H4          0.5117   12.6979   -2.0119 H         1 <0>         0.0672
     36 H5          1.8105   13.6874   -1.2631 H         1 <0>         0.0670
     37 H6          0.9921   10.6899    1.9636 H         1 <0>         0.1472
     38 H7          2.4875    8.7357    1.9515 H         1 <0>         0.1411
     39 H8          3.8982    9.8409   -1.9299 H         1 <0>         0.1345
     40 H9          2.3951   11.7893   -1.9205 H         1 <0>         0.1426
     41 H10         3.0441    4.0649   -0.9034 H         1 <0>         0.1370
     42 H11         3.0613    4.0552    0.8927 H         1 <0>         0.1373
     43 H12        -0.9585    1.9017    0.0169 H         1 <0>         0.1472
     44 H13        -0.9265   -0.5556    0.0079 H         1 <0>         0.1457
     45 H14         3.3459   -0.5193   -0.0319 H         1 <0>         0.1463
     46 H15         3.3363    1.9382   -0.0182 H         1 <0>         0.1465
     47 H16         4.8176   10.6019    0.5570 H         1 <0>         0.1281
     48 H17         6.2830   12.5773    0.5589 H         1 <0>         0.1282
     49 H18         8.6631   12.3496   -0.0197 H         1 <0>         0.1283
     50 H19         9.5946   10.1459   -0.5919 H         1 <0>         0.1323
     51 H20         8.1491    8.1558   -0.5885 H         1 <0>         0.1370
@<TRIPOS>BOND
     1    1    2 1
     2    1   32 1
     3    1   33 1
     4    1   34 1
     5    2    3 1
     6    2   35 1
     7    2   36 1
     8    3    4 1
     9    4    9 ar
    10    4    5 ar
    11    5    6 ar
    12    5   37 1
    13    6    7 ar
    14    6   38 1
    15    7    8 ar
    16    7   10 1
    17    8    9 ar
    18    8   39 1
    19    9   40 1
    20   10   14 1
    21   10   11 1
    22   11   12 2
    23   11   26 1
    24   12   13 1
    25   13   14 2
    26   14   15 1
    27   15   16 1
    28   16   17 1
    29   16   41 1
    30   16   42 1
    31   17   18 2
    32   17   19 1
    33   19   24 ar
    34   19   20 ar
    35   20   21 ar
    36   20   43 1
    37   21   22 ar
    38   21   44 1
    39   22   23 ar
    40   22   25 1
    41   23   24 ar
    42   23   45 1
    43   24   46 1
    44   26   31 ar
    45   26   27 ar
    46   27   28 ar
    47   27   47 1
    48   28   29 ar
    49   28   48 1
    50   29   30 ar
    51   29   49 1
    52   30   31 ar
    53   30   50 1
    54   31   51 1
@<TRIPOS>MOLECULE
ZINC34699153
   63    66     0     0     0
SMALL
USER_CHARGES

@<TRIPOS>ATOM
      1 C1          0.4548    0.8219   -0.7242 C.3       1 <0>        -0.2226
      2 C2         -0.0987   -0.3207    0.1296 C.3       1 <0>         0.1348
      3 C3          0.9259   -0.6995    1.2008 C.3       1 <0>        -0.1878
      4 N1         -1.3424    0.1091    0.7736 N.am      1 <0>        -0.6289
      5 C4         -2.4836   -0.8067    0.8472 C.3       1 <0>         0.1282
      6 C5         -2.3986   -1.6248    2.1373 C.3       1 <0>        -0.1005
      7 H1         -1.4325   -2.1250    2.2047 H         1 <0>         0.0882
      8 C6         -2.6180   -0.7146    3.3648 C.3       1 <0>         0.0376
      9 N2         -4.0655   -0.8440    3.6728 N.3       1 <0>        -0.4995
     10 C7         -4.3587   -2.2833    3.4506 C.3       1 <0>         0.0396
     11 C8         -3.5422   -2.6586    2.1924 C.3       1 <0>        -0.0467
     12 H2         -4.1641   -2.5832    1.3004 H         1 <0>         0.0975
     13 C9         -2.9826   -4.0515    2.3255 C.ar      1 <0>        -0.0740
     14 C10        -2.2039   -4.3821    3.4191 C.ar      1 <0>        -0.0826
     15 C11        -1.6907   -5.6596    3.5412 C.ar      1 <0>        -0.1150
     16 C12        -1.9564   -6.6070    2.5700 C.ar      1 <0>        -0.0739
     17 C13        -2.7357   -6.2768    1.4772 C.ar      1 <0>        -0.1774
     18 C14        -3.2526   -5.0001    1.3573 C.ar      1 <0>        -0.0628
     19 C15        -3.0249   -7.3094    0.4184 C.3       1 <0>         0.5074
     20 F1         -2.4019   -8.5146    0.7598 F         1 <0>        -0.1766
     21 F2         -4.4066   -7.5085    0.3262 F         1 <0>        -0.1754
     22 F3         -2.5347   -6.8638   -0.8138 F         1 <0>        -0.1758
     23 C16        -4.3445   -0.4584    5.0626 C.3       1 <0>         0.1230
     24 C17        -5.8344   -0.3649    5.2685 C.2       1 <0>        -0.0006
     25 C18        -6.6378   -1.3671    5.6678 C.2       1 <0>        -0.2050
     26 C19        -7.9491   -0.8419    5.7277 C.2       1 <0>        -0.2155
     27 C20        -7.8686    0.4499    5.3615 C.2       1 <0>        -0.0360
     28 O1         -6.5845    0.7348    5.0900 O.3       1 <0>        -0.1676
     29 C21        -1.4367    1.3469    1.2983 C.2       1 <0>         0.5788
     30 O2         -2.4918    1.9488    1.2499 O.2       1 <0>        -0.5028
     31 C22        -0.2580    1.9721    1.9323 C.ar      1 <0>        -0.1651
     32 C23         1.0284    1.6346    1.5063 C.ar      1 <0>        -0.1172
     33 C24         2.1247    2.2210    2.1014 C.ar      1 <0>        -0.1766
     34 C25         1.9521    3.1441    3.1215 C.ar      1 <0>         0.1287
     35 C26         0.6771    3.4828    3.5483 C.ar      1 <0>        -0.1701
     36 C27        -0.4263    2.9071    2.9560 C.ar      1 <0>        -0.0311
     37 F4          3.0301    3.7152    3.7019 F         1 <0>        -0.1346
     38 H3          1.4487    0.5573   -1.0851 H         1 <0>         0.0845
     39 H4         -0.2063    0.9940   -1.5736 H         1 <0>         0.0708
     40 H5          0.5163    1.7285   -0.1221 H         1 <0>         0.1000
     41 H6         -0.2976   -1.1847   -0.5046 H         1 <0>         0.1004
     42 H7          0.6183   -0.2845    2.1607 H         1 <0>         0.0773
     43 H8          0.9872   -1.7851    1.2773 H         1 <0>         0.0629
     44 H9          1.9021   -0.2988    0.9278 H         1 <0>         0.0758
     45 H10        -3.4105   -0.2333    0.8410 H         1 <0>         0.0968
     46 H11        -2.4662   -1.4786   -0.0109 H         1 <0>         0.0805
     47 H12        -2.0178   -1.0603    4.2065 H         1 <0>         0.0473
     48 H13        -2.3722    0.3188    3.1206 H         1 <0>         0.0856
     49 H14        -4.0310   -2.8745    4.3057 H         1 <0>         0.0521
     50 H15        -5.4236   -2.4310    3.2709 H         1 <0>         0.0895
     51 H16        -1.9964   -3.6420    4.1777 H         1 <0>         0.1278
     52 H17        -1.0818   -5.9176    4.3950 H         1 <0>         0.1357
     53 H18        -1.5548   -7.6051    2.6650 H         1 <0>         0.1389
     54 H19        -3.8646   -4.7432    0.5053 H         1 <0>         0.1349
     55 H20        -3.9308   -1.2076    5.7376 H         1 <0>         0.0701
     56 H21        -3.8876    0.5092    5.2699 H         1 <0>         0.0932
     57 H22        -6.3387   -2.3790    5.8979 H         1 <0>         0.1434
     58 H23        -8.8438   -1.3755    6.0126 H         1 <0>         0.1475
     59 H24        -8.6957    1.1417    5.3000 H         1 <0>         0.2023
     60 H25         1.1640    0.9152    0.7123 H         1 <0>         0.2169
     61 H26         3.1200    1.9607    1.7727 H         1 <0>         0.1407
     62 H27         0.5482    4.2021    4.3435 H         1 <0>         0.1417
     63 H28        -1.4191    3.1752    3.2859 H         1 <0>         0.1413
@<TRIPOS>BOND
     1    1    2 1
     2    1   38 1
     3    1   39 1
     4    1   40 1
     5    2    3 1
     6    2    4 1
     7    2   41 1
     8    3   42 1
     9    3   43 1
    10    3   44 1
    11    4    5 1
    12    4   29 am
    13    5    6 1
    14    5   45 1
    15    5   46 1
    16    6    7 1
    17    6   11 1
    18    6    8 1
    19    8    9 1
    20    8   47 1
    21    8   48 1
    22    9   10 1
    23    9   23 1
    24   10   11 1
    25   10   49 1
    26   10   50 1
    27   11   12 1
    28   11   13 1
    29   13   18 ar
    30   13   14 ar
    31   14   15 ar
    32   14   51 1
    33   15   16 ar
    34   15   52 1
    35   16   17 ar
    36   16   53 1
    37   17   18 ar
    38   17   19 1
    39   18   54 1
    40   19   20 1
    41   19   21 1
    42   19   22 1
    43   23   24 1
    44   23   55 1
    45   23   56 1
    46   24   28 1
    47   24   25 2
    48   25   26 1
    49   25   57 1
    50   26   27 2
    51   26   58 1
    52   27   28 1
    53   27   59 1
    54   29   30 2
    55   29   31 1
    56   31   36 ar
    57   31   32 ar
    58   32   33 ar
    59   32   60 1
    60   33   34 ar
    61   33   61 1
    62   34   35 ar
    63   34   37 1
    64   35   36 ar
    65   35   62 1
    66   36   63 1
@<TRIPOS>MOLECULE
ZINC35970703
   59    62     0     0     0
SMALL
USER_CHARGES

@<TRIPOS>ATOM
      1 C1          0.0002    1.1414    0.2769 C.3       1 <0>        -0.1507
      2 C2          0.1645   -0.3419   -0.0606 C.3       1 <0>        -0.1728
      3 C3         -1.2026   -0.9442   -0.3910 C.3       1 <0>         0.1317
      4 H1         -1.9506   -0.5453    0.2941 H         1 <0>         0.1050
      5 C4         -1.1380   -2.4659   -0.2459 C.3       1 <0>        -0.2010
      6 N1         -1.5681   -0.6000   -1.7673 N.am      1 <0>        -0.6009
      7 C5         -2.8120    0.1260   -2.0351 C.3       1 <0>         0.2030
      8 C6         -2.5160    1.5976   -2.1688 C.2       1 <0>        -0.2408
      9 C7         -2.5282    2.5369   -1.1332 C.2       1 <0>         0.1039
     10 N2         -2.2216    3.7072   -1.6319 N.2       1 <0>        -0.2648
     11 N3         -2.0020    3.5578   -3.0073 N.pl3     1 <0>        -0.3288
     12 C8         -2.1841    2.2461   -3.3170 C.2       1 <0>         0.2802
     13 O1         -2.0602    1.6871   -4.5477 O.3       1 <0>        -0.2035
     14 C9         -3.1309    1.7391   -5.3827 C.ar      1 <0>         0.1198
     15 C10        -4.2675    2.4438   -5.0124 C.ar      1 <0>        -0.1911
     16 C11        -5.3546    2.4950   -5.8631 C.ar      1 <0>        -0.0823
     17 C12        -5.3110    1.8445   -7.0825 C.ar      1 <0>        -0.1485
     18 C13        -4.1797    1.1417   -7.4539 C.ar      1 <0>        -0.0831
     19 C14        -3.0875    1.0924   -6.6096 C.ar      1 <0>        -0.1308
     20 C15        -1.6519    4.5772   -3.9033 C.ar      1 <0>         0.1427
     21 C16        -0.7546    4.3217   -4.9315 C.ar      1 <0>        -0.1170
     22 C17        -0.4116    5.3282   -5.8129 C.ar      1 <0>        -0.0992
     23 C18        -0.9609    6.5894   -5.6721 C.ar      1 <0>        -0.1156
     24 C19        -1.8545    6.8471   -4.6488 C.ar      1 <0>        -0.1036
     25 C20        -2.2062    5.8430   -3.7680 C.ar      1 <0>        -0.1058
     26 C21        -2.8417    2.2500    0.3126 C.3       1 <0>        -0.0959
     27 C22        -0.7599   -0.9512   -2.7871 C.2       1 <0>         0.6035
     28 O2         -1.0125   -0.5817   -3.9188 O.2       1 <0>        -0.5017
     29 C23         0.4235   -1.7781   -2.5331 C.2       1 <0>        -0.2934
     30 C24         1.3056   -2.3438   -3.4411 C.2       1 <0>        -0.0612
     31 C25         2.3332   -3.0769   -2.8976 C.2       1 <0>        -0.1971
     32 C26         2.4163   -3.1966   -1.5495 C.2       1 <0>        -0.2891
     33 S1          1.1080   -2.3123   -0.9762 S.3       1 <0>         0.2933
     34 H2          0.9620    1.5531    0.5826 H         1 <0>         0.0574
     35 H3         -0.3612    1.6760   -0.6016 H         1 <0>         0.0618
     36 H4         -0.7172    1.2517    1.0900 H         1 <0>         0.0677
     37 H5          0.8257   -0.4478   -0.9206 H         1 <0>         0.0893
     38 H6          0.5943   -0.8636    0.7946 H         1 <0>         0.0900
     39 H7         -0.3991   -2.7277    0.5115 H         1 <0>         0.0854
     40 H8         -2.1153   -2.8441    0.0540 H         1 <0>         0.0816
     41 H9         -0.8536   -2.9101   -1.1998 H         1 <0>         0.0811
     42 H10        -3.2549   -0.2412   -2.9610 H         1 <0>         0.0874
     43 H11        -3.5089   -0.0311   -1.2118 H         1 <0>         0.0938
     44 H12        -4.3023    2.9514   -4.0598 H         1 <0>         0.1194
     45 H13        -6.2394    3.0433   -5.5754 H         1 <0>         0.1250
     46 H14        -6.1623    1.8853   -7.7459 H         1 <0>         0.1259
     47 H15        -4.1483    0.6342   -8.4068 H         1 <0>         0.1323
     48 H16        -2.2023    0.5472   -6.9022 H         1 <0>         0.1349
     49 H17        -0.3250    3.3370   -5.0418 H         1 <0>         0.1318
     50 H18         0.2867    5.1302   -6.6127 H         1 <0>         0.1333
     51 H19        -0.6911    7.3749   -6.3625 H         1 <0>         0.1306
     52 H20        -2.2816    7.8332   -4.5411 H         1 <0>         0.1333
     53 H21        -2.9078    6.0435   -2.9718 H         1 <0>         0.1326
     54 H22        -1.9132    2.0942    0.8618 H         1 <0>         0.0965
     55 H23        -3.3805    3.0947    0.7421 H         1 <0>         0.0791
     56 H24        -3.4584    1.3537    0.3798 H         1 <0>         0.0801
     57 H25         1.1922   -2.2167   -4.5076 H         1 <0>         0.1426
     58 H26         3.0642   -3.5514   -3.5354 H         1 <0>         0.1262
     59 H27         3.1570   -3.7334   -0.9754 H         1 <0>         0.1765
@<TRIPOS>BOND
     1    1    2 1
     2    1   34 1
     3    1   35 1
     4    1   36 1
     5    2    3 1
     6    2   37 1
     7    2   38 1
     8    3    4 1
     9    3    5 1
    10    3    6 1
    11    5   39 1
    12    5   40 1
    13    5   41 1
    14    6    7 1
    15    6   27 am
    16    7    8 1
    17    7   42 1
    18    7   43 1
    19    8   12 2
    20    8    9 1
    21    9   10 2
    22    9   26 1
    23   10   11 1
    24   11   12 1
    25   11   20 1
    26   12   13 1
    27   13   14 1
    28   14   19 ar
    29   14   15 ar
    30   15   16 ar
    31   15   44 1
    32   16   17 ar
    33   16   45 1
    34   17   18 ar
    35   17   46 1
    36   18   19 ar
    37   18   47 1
    38   19   48 1
    39   20   25 ar
    40   20   21 ar
    41   21   22 ar
    42   21   49 1
    43   22   23 ar
    44   22   50 1
    45   23   24 ar
    46   23   51 1
    47   24   25 ar
    48   24   52 1
    49   25   53 1
    50   26   54 1
    51   26   55 1
    52   26   56 1
    53   27   28 2
    54   27   29 1
    55   29   33 1
    56   29   30 2
    57   30   31 1
    58   30   57 1
    59   31   32 2
    60   31   58 1
    61   32   33 1
    62   32   59 1
@<TRIPOS>MOLECULE
ZINC40513347
   61    64     0     0     0
SMALL
USER_CHARGES

@<TRIPOS>ATOM
      1 C1         -0.0187    1.5258    0.0104 C.3       1 <0>        -0.1541
      2 C2          0.0021   -0.0041    0.0020 C.3       1 <0>        -0.1243
      3 C3          0.7421   -0.5109    1.2415 C.3       1 <0>        -0.1170
      4 C4          0.7628   -2.0407    1.2331 C.3       1 <0>        -0.1406
      5 C5          1.5028   -2.5476    2.4727 C.3       1 <0>         0.1383
      6 N1          1.5227   -4.0124    2.4646 N.am      1 <0>        -0.5899
      7 C6          0.5056   -4.8945    3.0601 C.3       1 <0>         0.2290
      8 H1         -0.4622   -4.7246    2.5883 H         1 <0>         0.1239
      9 C7          0.9703   -6.2889    2.7949 C.2       1 <0>        -0.2465
     10 C8          0.3859   -7.5863    3.1510 C.2       1 <0>         0.4554
     11 O1         -0.7353   -7.7092    3.6115 O.2       1 <0>        -0.4283
     12 C9          1.2908   -8.7355    2.8963 C.ar      1 <0>        -0.2227
     13 C10         0.9641  -10.0087    3.3625 C.ar      1 <0>         0.0121
     14 C11         1.8104  -11.0557    3.1243 C.ar      1 <0>        -0.1505
     15 C12         2.9905  -10.8543    2.4220 C.ar      1 <0>        -0.0130
     16 C13         3.3280   -9.6046    1.9535 C.ar      1 <0>        -0.1484
     17 C14         2.4801   -8.5206    2.1809 C.ar      1 <0>         0.1514
     18 O2          2.8263   -7.3037    1.7028 O.3       1 <0>        -0.1814
     19 C15         2.1460   -6.2119    2.1040 C.2       1 <0>         0.0884
     20 C16         2.4729   -4.7890    1.9053 C.2       1 <0>         0.5703
     21 O3          3.4564   -4.3755    1.3239 O.2       1 <0>        -0.4858
     22 C17         3.9140  -12.0181    2.1697 C.3       1 <0>        -0.1228
     23 C18        -0.3161  -10.2294    4.1262 C.3       1 <0>        -0.1314
     24 C19         0.4100   -4.6501    4.5440 C.ar      1 <0>        -0.0600
     25 C20         1.5577   -4.4289    5.2831 C.ar      1 <0>        -0.1371
     26 C21         1.4733   -4.2044    6.6446 C.ar      1 <0>        -0.0766
     27 C22         0.2415   -4.2009    7.2703 C.ar      1 <0>        -0.1999
     28 C23        -0.9112   -4.4225    6.5312 C.ar      1 <0>         0.1342
     29 C24        -0.8243   -4.6415    5.1638 C.ar      1 <0>        -0.1213
     30 O4         -2.1240   -4.4195    7.1444 O.3       1 <0>        -0.3082
     31 C25        -2.1380   -4.1814    8.5533 C.3       1 <0>         0.0873
     32 C26        -3.5589   -4.2148    9.0543 C.2       1 <0>        -0.1603
     33 C27        -3.8517   -4.8695   10.1505 C.2       1 <0>        -0.1667
     34 H2          1.0039    1.9031    0.0027 H         1 <0>         0.0543
     35 H3         -0.5459    1.8868   -0.8726 H         1 <0>         0.0543
     36 H4         -0.5289    1.8773    0.9072 H         1 <0>         0.0540
     37 H5         -1.0205   -0.3814    0.0098 H         1 <0>         0.0616
     38 H6          0.5123   -0.3556   -0.8948 H         1 <0>         0.0619
     39 H7          1.7647   -0.1336    1.2338 H         1 <0>         0.0663
     40 H8          0.2319   -0.1594    2.1383 H         1 <0>         0.0656
     41 H9         -0.2598   -2.4180    1.2409 H         1 <0>         0.0691
     42 H10         1.2730   -2.3923    0.3363 H         1 <0>         0.0706
     43 H11         2.5254   -2.1703    2.4649 H         1 <0>         0.0933
     44 H12         0.9926   -2.1961    3.3695 H         1 <0>         0.0926
     45 H13         1.5599  -12.0428    3.4840 H         1 <0>         0.1385
     46 H14         4.2501   -9.4634    1.4092 H         1 <0>         0.1463
     47 H15         3.6463  -12.4969    1.2278 H         1 <0>         0.0828
     48 H16         4.9424  -11.6609    2.1162 H         1 <0>         0.0756
     49 H17         3.8214  -12.7383    2.9826 H         1 <0>         0.0765
     50 H18        -1.1164  -10.4790    3.4295 H         1 <0>         0.0831
     51 H19        -0.1811  -11.0482    4.8329 H         1 <0>         0.0700
     52 H20        -0.5769   -9.3206    4.6686 H         1 <0>         0.0944
     53 H21         2.5216   -4.4320    4.7960 H         1 <0>         0.1189
     54 H22         2.3711   -4.0319    7.2196 H         1 <0>         0.1285
     55 H23         0.1762   -4.0261    8.3341 H         1 <0>         0.1299
     56 H24        -1.7207   -4.8096    4.5854 H         1 <0>         0.1367
     57 H25        -1.5566   -4.9530    9.0580 H         1 <0>         0.0680
     58 H26        -1.7024   -3.2041    8.7610 H         1 <0>         0.0729
     59 H27        -4.3358   -3.6990    8.5095 H         1 <0>         0.1211
     60 H28        -3.0748   -5.3854   10.6953 H         1 <0>         0.0999
     61 H29        -4.8700   -4.8935   10.5095 H         1 <0>         0.1097
@<TRIPOS>BOND
     1    1    2 1
     2    1   34 1
     3    1   35 1
     4    1   36 1
     5    2    3 1
     6    2   37 1
     7    2   38 1
     8    3    4 1
     9    3   39 1
    10    3   40 1
    11    4    5 1
    12    4   41 1
    13    4   42 1
    14    5    6 1
    15    5   43 1
    16    5   44 1
    17    6   20 am
    18    6    7 1
    19    7    8 1
    20    7    9 1
    21    7   24 1
    22    9   19 2
    23    9   10 1
    24   10   11 2
    25   10   12 1
    26   12   17 ar
    27   12   13 ar
    28   13   14 ar
    29   13   23 1
    30   14   15 ar
    31   14   45 1
    32   15   16 ar
    33   15   22 1
    34   16   17 ar
    35   16   46 1
    36   17   18 1
    37   18   19 1
    38   19   20 1
    39   20   21 2
    40   22   47 1
    41   22   48 1
    42   22   49 1
    43   23   50 1
    44   23   51 1
    45   23   52 1
    46   24   29 ar
    47   24   25 ar
    48   25   26 ar
    49   25   53 1
    50   26   27 ar
    51   26   54 1
    52   27   28 ar
    53   27   55 1
    54   28   29 ar
    55   28   30 1
    56   29   56 1
    57   30   31 1
    58   31   32 1
    59   31   57 1
    60   31   58 1
    61   32   33 2
    62   32   59 1
    63   33   60 1
    64   33   61 1
@<TRIPOS>MOLECULE
ZINC06723485
   53    54     0     0     0
SMALL
USER_CHARGES
N-[[1-[(2,5-dimethylphenyl)methyl]imidazol-2-yl]methyl]-N-isobutyl-propanamide
@<TRIPOS>ATOM
      1 C1         -2.9892    0.7705   -3.0244 C.3       1 <0>        -0.1375
      2 C2         -1.9925    1.5961   -2.2084 C.3       1 <0>        -0.1434
      3 C3         -1.7547    0.9265   -0.8794 C.2       1 <0>         0.5163
      4 O1         -2.3261   -0.1092   -0.6114 O.2       1 <0>        -0.5413
      5 N1         -0.9070    1.4784    0.0112 N.am      1 <0>        -0.6020
      6 C4         -0.5955    0.7760    1.2585 C.3       1 <0>         0.1908
      7 C5         -1.4796    1.2965    2.3624 C.2       1 <0>         0.1884
      8 N2         -1.2592    2.3699    3.0712 N.2       1 <0>        -0.4809
      9 C6         -2.2532    2.5262    3.9580 C.2       1 <0>        -0.0278
     10 C7         -3.1184    1.5067    3.7980 C.2       1 <0>        -0.0550
     11 N3         -2.6281    0.7263    2.7859 N.pl3     1 <0>        -0.4336
     12 C8         -3.2361   -0.4985    2.2601 C.3       1 <0>         0.1246
     13 C9         -2.5907   -1.6972    2.9064 C.ar      1 <0>        -0.1087
     14 C10        -1.5416   -2.3409    2.2768 C.ar      1 <0>        -0.0961
     15 C11        -0.9495   -3.4400    2.8697 C.ar      1 <0>        -0.0913
     16 C12        -1.4063   -3.8958    4.0925 C.ar      1 <0>        -0.1066
     17 C13        -2.4553   -3.2525    4.7217 C.ar      1 <0>        -0.1178
     18 C14        -3.0439   -2.1496    4.1313 C.ar      1 <0>        -0.0705
     19 C15        -4.1834   -1.4441    4.8205 C.3       1 <0>        -0.1275
     20 C16         0.1944   -4.1414    2.1837 C.3       1 <0>        -0.1158
     21 C17        -0.2971    2.7808   -0.2680 C.3       1 <0>         0.1104
     22 C18         0.9836    2.5805   -1.0807 C.3       1 <0>        -0.1146
     23 C19         1.5562    3.9436   -1.4745 C.3       1 <0>        -0.1471
     24 C20         2.0094    1.8209   -0.2371 C.3       1 <0>        -0.1503
     25 H1         -2.5853   -0.2286   -3.1881 H         1 <0>         0.0623
     26 H2         -3.9311    0.6970   -2.4808 H         1 <0>         0.0604
     27 H3         -3.1612    1.2549   -3.9856 H         1 <0>         0.0620
     28 H4         -2.3964    2.5952   -2.0447 H         1 <0>         0.0928
     29 H5         -1.0506    1.6696   -2.7519 H         1 <0>         0.0961
     30 H6         -0.7691   -0.2920    1.1271 H         1 <0>         0.1016
     31 H7          0.4492    0.9450    1.5195 H         1 <0>         0.1078
     32 H8         -2.3419    3.3269    4.6774 H         1 <0>         0.1695
     33 H9         -4.0246    1.3370    4.3606 H         1 <0>         0.1740
     34 H10        -4.3036   -0.4977    2.4803 H         1 <0>         0.0961
     35 H11        -3.0877   -0.5435    1.1812 H         1 <0>         0.1306
     36 H12        -1.1846   -1.9847    1.3218 H         1 <0>         0.1256
     37 H13        -0.9436   -4.7546    4.5558 H         1 <0>         0.1242
     38 H14        -2.8124   -3.6087    5.6767 H         1 <0>         0.1243
     39 H15        -5.1280   -1.8912    4.5108 H         1 <0>         0.0733
     40 H16        -4.0716   -1.5424    5.9003 H         1 <0>         0.0705
     41 H17        -4.1747   -0.3886    4.5488 H         1 <0>         0.0685
     42 H18         1.1367   -3.6926    2.4979 H         1 <0>         0.0711
     43 H19         0.1872   -5.1975    2.4532 H         1 <0>         0.0679
     44 H20         0.0866   -4.0413    1.1036 H         1 <0>         0.0672
     45 H21        -0.9957    3.3949   -0.8363 H         1 <0>         0.0787
     46 H22        -0.0571    3.2786    0.6715 H         1 <0>         0.0941
     47 H23         0.7574    2.0079   -1.9802 H         1 <0>         0.0724
     48 H24         1.7825    4.5162   -0.5751 H         1 <0>         0.0593
     49 H25         2.4686    3.8008   -2.0535 H         1 <0>         0.0596
     50 H26         0.8254    4.4847   -2.0756 H         1 <0>         0.0565
     51 H27         2.9593    1.7797   -0.7702 H         1 <0>         0.0573
     52 H28         2.1487    2.3340    0.7144 H         1 <0>         0.0594
     53 H29         1.6510    0.8078   -0.0546 H         1 <0>         0.0538
@<TRIPOS>BOND
     1    1    2 1
     2    1   25 1
     3    1   26 1
     4    1   27 1
     5    2    3 1
     6    2   28 1
     7    2   29 1
     8    3    4 2
     9    3    5 am
    10    5    6 1
    11    5   21 1
    12    6    7 1
    13    6   30 1
    14    6   31 1
    15    7   11 1
    16    7    8 2
    17    8    9 1
    18    9   10 2
    19    9   32 1
    20   10   11 1
    21   10   33 1
    22   11   12 1
    23   12   13 1
    24   12   34 1
    25   12   35 1
    26   13   18 ar
    27   13   14 ar
    28   14   15 ar
    29   14   36 1
    30   15   16 ar
    31   15   20 1
    32   16   17 ar
    33   16   37 1
    34   17   18 ar
    35   17   38 1
    36   18   19 1
    37   19   39 1
    38   19   40 1
    39   19   41 1
    40   20   42 1
    41   20   43 1
    42   20   44 1
    43   21   22 1
    44   21   45 1
    45   21   46 1
    46   22   23 1
    47   22   24 1
    48   22   47 1
    49   23   48 1
    50   23   49 1
    51   23   50 1
    52   24   51 1
    53   24   52 1
    54   24   53 1
@<TRIPOS>MOLECULE
ZINC38109769
   40    40     0     0     0
SMALL
USER_CHARGES

@<TRIPOS>ATOM
      1 C1          4.8798    0.5512   -4.0086 C.3       1 <0>        -0.1541
      2 C2          4.2439   -0.8076   -4.3090 C.3       1 <0>        -0.1249
      3 C3          3.4126   -1.2587   -3.1063 C.3       1 <0>        -0.1191
      4 C4          2.7767   -2.6174   -3.4067 C.3       1 <0>        -0.1475
      5 C5          1.9454   -3.0685   -2.2040 C.3       1 <0>         0.1178
      6 N1          1.4406   -4.4234   -2.4398 N.pl3     1 <0>        -0.9903
      7 C6          0.1940   -4.6216   -3.1833 C.3       1 <0>         0.1350
      8 C7         -0.9492   -3.9041   -2.4627 C.3       1 <0>        -0.1671
      9 C8          0.3455   -4.0503   -4.5945 C.3       1 <0>        -0.1620
     10 S1          2.2793   -5.7310   -1.8660 S.o2      1 <0>         2.7235
     11 O1          1.9100   -6.8380   -2.6769 O.2       1 <0>        -0.9383
     12 O2          3.6292   -5.3136   -1.7156 O.2       1 <0>        -0.9335
     13 C9          1.6731   -6.0688   -0.2464 C.2       1 <0>        -0.8179
     14 C10         2.0438   -7.0327    0.6338 C.2       1 <0>         0.2242
     15 N2          1.4160   -7.0572    1.7934 N.2       1 <0>        -0.5203
     16 C11         0.4773   -6.1878    2.0781 C.2       1 <0>         0.1004
     17 S2          0.4066   -5.2325    0.6942 S.3       1 <0>         0.2896
     18 Cl1        -0.4607   -6.0507    3.5325 Cl        1 <0>         0.0760
     19 C12         3.1234   -8.0302    0.3012 C.3       1 <0>        -0.1158
     20 H1          4.0966    1.2836   -3.8130 H         1 <0>         0.0532
     21 H2          5.5238    0.4654   -3.1334 H         1 <0>         0.0541
     22 H3          5.4720    0.8726   -4.8654 H         1 <0>         0.0536
     23 H4          3.5998   -0.7218   -5.1841 H         1 <0>         0.0609
     24 H5          5.0270   -1.5400   -4.5046 H         1 <0>         0.0625
     25 H6          4.0567   -1.3444   -2.2311 H         1 <0>         0.0652
     26 H7          2.6294   -0.5262   -2.9107 H         1 <0>         0.0634
     27 H8          2.1326   -2.5316   -4.2818 H         1 <0>         0.0780
     28 H9          3.5599   -3.3499   -3.6023 H         1 <0>         0.0711
     29 H10         2.5682   -3.0634   -1.3094 H         1 <0>         0.0828
     30 H11         1.1060   -2.3869   -2.0663 H         1 <0>         0.0878
     31 H12        -0.0272   -5.6872   -3.2445 H         1 <0>         0.1027
     32 H13        -0.7944   -2.8265   -2.5187 H         1 <0>         0.0676
     33 H14        -1.8960   -4.1603   -2.9380 H         1 <0>         0.0748
     34 H15        -0.9715   -4.2141   -1.4179 H         1 <0>         0.0569
     35 H16         1.2107   -4.5031   -5.0788 H         1 <0>         0.0637
     36 H17        -0.5514   -4.2700   -5.1737 H         1 <0>         0.0704
     37 H18         0.4851   -2.9708   -4.5365 H         1 <0>         0.0686
     38 H19         4.0902   -7.6378    0.6166 H         1 <0>         0.1026
     39 H20         2.9247   -8.9675    0.8209 H         1 <0>         0.0991
     40 H21         3.1362   -8.2067   -0.7743 H         1 <0>         0.0853
@<TRIPOS>BOND
     1    1    2 1
     2    1   20 1
     3    1   21 1
     4    1   22 1
     5    2    3 1
     6    2   23 1
     7    2   24 1
     8    3    4 1
     9    3   25 1
    10    3   26 1
    11    4    5 1
    12    4   27 1
    13    4   28 1
    14    5    6 1
    15    5   29 1
    16    5   30 1
    17    6    7 1
    18    6   10 1
    19    7    8 1
    20    7    9 1
    21    7   31 1
    22    8   32 1
    23    8   33 1
    24    8   34 1
    25    9   35 1
    26    9   36 1
    27    9   37 1
    28   10   11 2
    29   10   12 2
    30   10   13 1
    31   13   17 1
    32   13   14 2
    33   14   15 1
    34   14   19 1
    35   15   16 2
    36   16   17 1
    37   16   18 1
    38   19   38 1
    39   19   39 1
    40   19   40 1
@<TRIPOS>MOLECULE
ZINC55341634
   43    45     0     0     0
SMALL
USER_CHARGES

@<TRIPOS>ATOM
      1 C1         -0.2025    1.4663   -0.4124 C.3       1 <0>        -0.0727
      2 C2         -0.0627   -0.0296   -0.2940 C.2       1 <0>        -0.1350
      3 C3         -1.0175   -0.9592   -0.0460 C.2       1 <0>        -0.1651
      4 C4         -0.6551   -2.2915    0.0188 C.2       1 <0>        -0.1286
      5 C5          0.6443   -2.6291   -0.1676 C.2       1 <0>        -0.1437
      6 S1          1.4021   -1.0378   -0.4519 S.3       1 <0>         0.0243
      7 C6          1.2827   -3.9940   -0.1461 C.3       1 <0>         0.1343
      8 N1          1.2617   -4.5658   -1.4991 N.3       1 <0>        -0.5245
      9 C7          1.6558   -5.9808   -1.4788 C.3       1 <0>         0.0348
     10 C8          0.4938   -6.8263   -0.9536 C.3       1 <0>         0.1360
     11 N2          0.9012   -8.2322   -0.8930 N.am      1 <0>        -0.5449
     12 C9          0.7700   -9.1737   -1.9135 C.ar      1 <0>         0.0705
     13 C10         0.2630   -9.1158   -3.2022 C.ar      1 <0>        -0.1000
     14 C11         0.2701  -10.2472   -3.9947 C.ar      1 <0>        -0.0967
     15 C12         0.7812  -11.4366   -3.5050 C.ar      1 <0>        -0.1069
     16 C13         1.2880  -11.5018   -2.2218 C.ar      1 <0>        -0.0779
     17 C14         1.2856  -10.3716   -1.4193 C.ar      1 <0>         0.0331
     18 O1          1.7042  -10.1371   -0.1515 O.3       1 <0>        -0.2359
     19 C15         1.4766   -8.8507    0.1572 C.2       1 <0>         0.6347
     20 O2          1.7449   -8.3257    1.2206 O.2       1 <0>        -0.4838
     21 C16         2.1175   -3.7940   -2.4101 C.3       1 <0>         0.0734
     22 C17         1.7706   -4.1364   -3.8361 C.2       1 <0>        -0.1496
     23 C18         1.4439   -3.1865   -4.6769 C.2       1 <0>        -0.1754
     24 H1          0.7720    1.9067   -0.6229 H         1 <0>         0.0723
     25 H2         -0.8914    1.7038   -1.2230 H         1 <0>         0.0816
     26 H3         -0.5893    1.8702    0.5232 H         1 <0>         0.0816
     27 H4         -2.0460   -0.6632    0.0992 H         1 <0>         0.1328
     28 H5         -1.3962   -3.0521    0.2154 H         1 <0>         0.1329
     29 H6          2.3141   -3.9074    0.1958 H         1 <0>         0.0551
     30 H7          0.7287   -4.6436    0.5315 H         1 <0>         0.1012
     31 H8          1.9110   -6.3014   -2.4888 H         1 <0>         0.0870
     32 H9          2.5208   -6.1078   -0.8278 H         1 <0>         0.0492
     33 H10         0.2177   -6.4847    0.0440 H         1 <0>         0.0984
     34 H11        -0.3610   -6.7243   -1.6222 H         1 <0>         0.1049
     35 H12        -0.1368   -8.1887   -3.5857 H         1 <0>         0.1362
     36 H13        -0.1245  -10.2036   -4.9991 H         1 <0>         0.1406
     37 H14         0.7834  -12.3180   -4.1292 H         1 <0>         0.1434
     38 H15         1.6857  -12.4322   -1.8442 H         1 <0>         0.1422
     39 H16         1.9582   -2.7287   -2.2431 H         1 <0>         0.0891
     40 H17         3.1628   -4.0390   -2.2216 H         1 <0>         0.0471
     41 H18         1.7913   -5.1650   -4.1648 H         1 <0>         0.1073
     42 H19         1.1953   -3.4319   -5.6988 H         1 <0>         0.1002
     43 H20         1.4232   -2.1580   -4.3482 H         1 <0>         0.0967
@<TRIPOS>BOND
     1    1    2 1
     2    1   24 1
     3    1   25 1
     4    1   26 1
     5    2    6 1
     6    2    3 2
     7    3    4 1
     8    3   27 1
     9    4    5 2
    10    4   28 1
    11    5    6 1
    12    5    7 1
    13    7    8 1
    14    7   29 1
    15    7   30 1
    16    8    9 1
    17    8   21 1
    18    9   10 1
    19    9   31 1
    20    9   32 1
    21   10   11 1
    22   10   33 1
    23   10   34 1
    24   11   19 am
    25   11   12 1
    26   12   17 ar
    27   12   13 ar
    28   13   14 ar
    29   13   35 1
    30   14   15 ar
    31   14   36 1
    32   15   16 ar
    33   15   37 1
    34   16   17 ar
    35   16   38 1
    36   17   18 1
    37   18   19 1
    38   19   20 2
    39   21   22 1
    40   21   39 1
    41   21   40 1
    42   22   23 2
    43   22   41 1
    44   23   42 1
    45   23   43 1
@<TRIPOS>MOLECULE
ZINC63123616
   42    43     0     0     0
SMALL
USER_CHARGES

@<TRIPOS>ATOM
      1 C1         -0.0187    1.5258    0.0104 C.3       1 <0>        -0.1469
      2 C2          0.0021   -0.0041    0.0020 C.3       1 <0>        -0.0876
      3 C3          0.7074   -0.4901   -1.2379 C.ar      1 <0>        -0.0769
      4 C4         -0.0105   -0.7185   -2.3969 C.ar      1 <0>        -0.1188
      5 C5          0.6365   -1.1643   -3.5342 C.ar      1 <0>        -0.0900
      6 C6          2.0016   -1.3812   -3.5126 C.ar      1 <0>        -0.0878
      7 C7          2.7197   -1.1520   -2.3539 C.ar      1 <0>        -0.1083
      8 C8          2.0733   -0.7021   -1.2178 C.ar      1 <0>        -0.1205
      9 C9          2.7068   -1.8682   -4.7522 C.3       1 <0>         0.1009
     10 N1          3.1504   -0.7157   -5.5478 N.3       1 <0>        -0.5453
     11 C10         4.1830    0.0492   -4.8360 C.3       1 <0>         0.0183
     12 C11         3.6284   -1.1415   -6.8701 C.3       1 <0>         0.2837
     13 N2          3.4962   -0.0320   -7.8176 N.pl3     1 <0>        -0.3327
     14 C12         2.5056   -0.0274   -8.7448 C.2       1 <0>         0.2596
     15 S1          1.2767   -1.1848   -9.0299 S.2       1 <0>        -0.3890
     16 S2          2.8308    1.5141   -9.5870 S.3       1 <0>         0.0886
     17 C13         4.2541    2.0147   -8.6318 C.2       1 <0>         0.2925
     18 N3          4.3707    1.0298   -7.7822 N.2       1 <0>        -0.3280
     19 O1          5.0140    3.1311   -8.7538 O.3       1 <0>        -0.2431
     20 C14         6.1059    3.2753   -7.8433 C.3       1 <0>         0.0529
     21 C15         6.8413    4.5855   -8.1323 C.3       1 <0>        -0.1542
     22 H1          1.0039    1.9031    0.0027 H         1 <0>         0.0547
     23 H2         -0.5459    1.8868   -0.8726 H         1 <0>         0.0558
     24 H3         -0.5289    1.8773    0.9072 H         1 <0>         0.0588
     25 H4          0.5293   -0.3651    0.8851 H         1 <0>         0.0716
     26 H5         -1.0205   -0.3814    0.0098 H         1 <0>         0.0724
     27 H6         -1.0770   -0.5490   -2.4137 H         1 <0>         0.1219
     28 H7          0.0755   -1.3434   -4.4395 H         1 <0>         0.1245
     29 H8          3.7861   -1.3218   -2.3370 H         1 <0>         0.1179
     30 H9          2.6349   -0.5194   -0.3136 H         1 <0>         0.1204
     31 H10         3.5716   -2.4671   -4.4667 H         1 <0>         0.0523
     32 H11         2.0229   -2.4766   -5.3440 H         1 <0>         0.0934
     33 H12         5.0420   -0.5931   -4.6421 H         1 <0>         0.0323
     34 H13         4.4936    0.8965   -5.4473 H         1 <0>         0.0761
     35 H14         3.7796    0.4117   -3.8906 H         1 <0>         0.0771
     36 H15         4.6753   -1.4369   -6.8002 H         1 <0>         0.0827
     37 H16         3.0344   -1.9875   -7.2160 H         1 <0>         0.1337
     38 H17         5.7274    3.2888   -6.8212 H         1 <0>         0.0767
     39 H18         6.7935    2.4382   -7.9651 H         1 <0>         0.0769
     40 H19         7.2199    4.5719   -9.1543 H         1 <0>         0.0719
     41 H20         6.1538    5.4225   -8.0105 H         1 <0>         0.0719
     42 H21         7.6742    4.6954   -7.4378 H         1 <0>         0.0895
@<TRIPOS>BOND
     1    1    2 1
     2    1   22 1
     3    1   23 1
     4    1   24 1
     5    2    3 1
     6    2   25 1
     7    2   26 1
     8    3    8 ar
     9    3    4 ar
    10    4    5 ar
    11    4   27 1
    12    5    6 ar
    13    5   28 1
    14    6    7 ar
    15    6    9 1
    16    7    8 ar
    17    7   29 1
    18    8   30 1
    19    9   10 1
    20    9   31 1
    21    9   32 1
    22   10   11 1
    23   10   12 1
    24   11   33 1
    25   11   34 1
    26   11   35 1
    27   12   13 1
    28   12   36 1
    29   12   37 1
    30   13   18 1
    31   13   14 1
    32   14   15 2
    33   14   16 1
    34   16   17 1
    35   17   18 2
    36   17   19 1
    37   19   20 1
    38   20   21 1
    39   20   38 1
    40   20   39 1
    41   21   40 1
    42   21   41 1
    43   21   42 1
@<TRIPOS>MOLECULE
ZINC66846130
   49    50     0     0     0
SMALL
USER_CHARGES

@<TRIPOS>ATOM
      1 C1         -0.1454    1.5272   -0.0470 C.3       1 <0>        -0.1896
      2 C2          0.0063    0.0056    0.0056 C.3       1 <0>         0.0642
      3 H1          0.6652   -0.2655    0.8305 H         1 <0>         0.1083
      4 C3          0.5965   -0.4855   -1.2911 C.2       1 <0>         0.5269
      5 O1         -0.0904   -1.1092   -2.0723 O.2       1 <0>        -0.5170
      6 N1          1.8876   -0.2317   -1.5828 N.am      1 <0>        -0.6044
      7 C4          2.4330   -0.6152   -2.8873 C.3       1 <0>         0.1429
      8 C5          2.1439    0.4705   -3.8915 C.2       1 <0>        -0.1700
      9 C6          3.1236    1.0089   -4.5744 C.2       1 <0>        -0.1779
     10 C7          2.7457    0.4277   -0.5953 C.3       1 <0>         0.1254
     11 C8          3.5061   -0.6137    0.1846 C.2       1 <0>        -0.1832
     12 C9          4.8135   -0.5602    0.2469 C.2       1 <0>        -0.1682
     13 N2         -1.3115   -0.6111    0.2085 N.3       1 <0>        -0.5131
     14 C10        -2.2385   -0.2401   -0.8705 C.3       1 <0>        -0.0051
     15 C11        -3.5772   -0.9501   -0.6524 C.3       1 <0>         0.0673
     16 O2         -4.0866   -0.6098    0.6399 O.3       1 <0>        -0.3777
     17 C12        -3.2093   -0.9577    1.7145 C.3       1 <0>         0.1413
     18 H2         -3.0529   -2.0364    1.7219 H         1 <0>         0.0804
     19 C13        -1.8668   -0.2478    1.5203 C.3       1 <0>         0.0290
     20 C14        -3.8217   -0.5290    3.0230 C.ar      1 <0>        -0.1201
     21 C15        -4.7409    0.5029    3.0509 C.ar      1 <0>        -0.0644
     22 C16        -5.3028    0.8963    4.2510 C.ar      1 <0>        -0.1320
     23 C17        -4.9460    0.2584    5.4247 C.ar      1 <0>        -0.0874
     24 C18        -4.0276   -0.7737    5.3991 C.ar      1 <0>        -0.1547
     25 C19        -3.4680   -1.1722    4.1967 C.ar      1 <0>         0.1082
     26 F1         -2.5735   -2.1843    4.1699 F         1 <0>        -0.1357
     27 H3          0.8400    1.9884   -0.1143 H         1 <0>         0.0743
     28 H4         -0.7363    1.8034   -0.9202 H         1 <0>         0.0679
     29 H5         -0.6478    1.8737    0.8561 H         1 <0>         0.0734
     30 H6          3.5107   -0.7552   -2.8036 H         1 <0>         0.0837
     31 H7          1.9701   -1.5460   -3.2151 H         1 <0>         0.0923
     32 H8          1.1289    0.8048   -4.0482 H         1 <0>         0.1091
     33 H9          2.9165    1.7871   -5.2941 H         1 <0>         0.1004
     34 H10         4.1386    0.6746   -4.4177 H         1 <0>         0.0981
     35 H11         3.4495    1.0846   -1.1065 H         1 <0>         0.0854
     36 H12         2.1303    1.0147    0.0865 H         1 <0>         0.0961
     37 H13         2.9732   -1.4041    0.6922 H         1 <0>         0.1123
     38 H14         5.3464    0.2303   -0.2606 H         1 <0>         0.0993
     39 H15         5.3585   -1.3065    0.8059 H         1 <0>         0.1024
     40 H16        -2.3932    0.8388   -0.8626 H         1 <0>         0.0409
     41 H17        -1.8190   -0.5413   -1.8304 H         1 <0>         0.1262
     42 H18        -4.2859   -0.6339   -1.4178 H         1 <0>         0.1019
     43 H19        -3.4315   -2.0286   -0.7137 H         1 <0>         0.0622
     44 H20        -1.1760   -0.5545    2.3056 H         1 <0>         0.0868
     45 H21        -2.0156    0.8310    1.5665 H         1 <0>         0.0516
     46 H22        -5.0200    1.0021    2.1348 H         1 <0>         0.1389
     47 H23        -6.0207    1.7029    4.2719 H         1 <0>         0.1314
     48 H24        -5.3852    0.5671    6.3618 H         1 <0>         0.1340
     49 H25        -3.7489   -1.2716    6.3161 H         1 <0>         0.1378
@<TRIPOS>BOND
     1    1    2 1
     2    1   27 1
     3    1   28 1
     4    1   29 1
     5    2    3 1
     6    2    4 1
     7    2   13 1
     8    4    5 2
     9    4    6 am
    10    6    7 1
    11    6   10 1
    12    7    8 1
    13    7   30 1
    14    7   31 1
    15    8    9 2
    16    8   32 1
    17    9   33 1
    18    9   34 1
    19   10   11 1
    20   10   35 1
    21   10   36 1
    22   11   12 2
    23   11   37 1
    24   12   38 1
    25   12   39 1
    26   13   19 1
    27   13   14 1
    28   14   15 1
    29   14   40 1
    30   14   41 1
    31   15   16 1
    32   15   42 1
    33   15   43 1
    34   16   17 1
    35   17   18 1
    36   17   19 1
    37   17   20 1
    38   19   44 1
    39   19   45 1
    40   20   25 ar
    41   20   21 ar
    42   21   22 ar
    43   21   46 1
    44   22   23 ar
    45   22   47 1
    46   23   24 ar
    47   23   48 1
    48   24   25 ar
    49   24   49 1
    50   25   26 1
@<TRIPOS>MOLECULE
ZINC09330931
   58    61     0     0     0
SMALL
USER_CHARGES
N-benzyl-2-[[4-benzyl-5-(2-fluorophenyl)-1,2,4-triazol-3-yl]sulfanyl]-N-methyl-propanamide
@<TRIPOS>ATOM
      1 C1         -4.4668    3.1695    4.6909 C.3       1 <0>        -0.1455
      2 C2         -5.3817    3.0696    3.4686 C.3       1 <0>        -0.1094
      3 H1         -6.0267    2.1965    3.5680 H         1 <0>         0.1260
      4 C3         -6.2292    4.3120    3.3726 C.2       1 <0>         0.5399
      5 O1         -5.9226    5.1972    2.6024 O.2       1 <0>        -0.5202
      6 N1         -7.3280    4.4393    4.1427 N.am      1 <0>        -0.6019
      7 C4         -7.6984    3.3700    5.0730 C.3       1 <0>         0.0691
      8 C5         -8.1519    5.6471    4.0494 C.3       1 <0>         0.1558
      9 C6         -9.2171    5.4488    3.0019 C.ar      1 <0>        -0.1127
     10 C7         -8.9693    5.8023    1.6887 C.ar      1 <0>        -0.0947
     11 C8         -9.9445    5.6156    0.7269 C.ar      1 <0>        -0.1227
     12 C9        -11.1713    5.0854    1.0803 C.ar      1 <0>        -0.1142
     13 C10       -11.4210    4.7372    2.3946 C.ar      1 <0>        -0.1241
     14 C11       -10.4439    4.9187    3.3553 C.ar      1 <0>        -0.1063
     15 S1         -4.3750    2.9089    1.9730 S.3       1 <0>         0.0747
     16 C12        -3.6238    1.3443    2.2765 C.2       1 <0>         0.1551
     17 N2         -3.8094    0.5817    3.3305 N.2       1 <0>        -0.2887
     18 N3         -3.1070   -0.4896    3.2294 N.2       1 <0>        -0.2538
     19 C13        -2.4337   -0.4795    2.1025 C.2       1 <0>         0.2231
     20 N4         -2.7399    0.6978    1.4599 N.pl3     1 <0>        -0.4470
     21 C14        -2.2293    1.1590    0.1665 C.3       1 <0>         0.1427
     22 C15        -0.9958    1.9972    0.3833 C.ar      1 <0>        -0.1251
     23 C16         0.2406    1.3901    0.4999 C.ar      1 <0>        -0.0935
     24 C17         1.3728    2.1593    0.6931 C.ar      1 <0>        -0.1208
     25 C18         1.2679    3.5353    0.7751 C.ar      1 <0>        -0.1032
     26 C19         0.0308    4.1420    0.6638 C.ar      1 <0>        -0.1183
     27 C20        -1.1014    3.3728    0.4706 C.ar      1 <0>        -0.0895
     28 C21        -1.5175   -1.5329    1.6170 C.ar      1 <0>        -0.0534
     29 C22        -1.6261   -2.0087    0.3094 C.ar      1 <0>        -0.0753
     30 C23        -0.7677   -2.9915   -0.1378 C.ar      1 <0>        -0.1262
     31 C24         0.2008   -3.5065    0.7060 C.ar      1 <0>        -0.0723
     32 C25         0.3154   -3.0414    2.0033 C.ar      1 <0>        -0.1522
     33 C26        -0.5344   -2.0531    2.4634 C.ar      1 <0>         0.1428
     34 F1         -0.4185   -1.5951    3.7291 F         1 <0>        -0.1215
     35 H2         -3.8218    4.0426    4.5915 H         1 <0>         0.0706
     36 H3         -5.0731    3.2663    5.5916 H         1 <0>         0.0737
     37 H4         -3.8538    2.2709    4.7603 H         1 <0>         0.0909
     38 H5         -7.2242    3.5477    6.0382 H         1 <0>         0.0661
     39 H6         -8.7812    3.3555    5.1974 H         1 <0>         0.0776
     40 H7         -7.3654    2.4112    4.6757 H         1 <0>         0.0766
     41 H8         -8.6221    5.8416    5.0133 H         1 <0>         0.0907
     42 H9         -7.5244    6.4946    3.7736 H         1 <0>         0.0960
     43 H10        -8.0125    6.2206    1.4134 H         1 <0>         0.1279
     44 H11        -9.7493    5.8873   -0.3000 H         1 <0>         0.1225
     45 H12       -11.9345    4.9430    0.3296 H         1 <0>         0.1218
     46 H13       -12.3795    4.3230    2.6707 H         1 <0>         0.1224
     47 H14       -10.6390    4.6466    4.3821 H         1 <0>         0.1204
     48 H15        -2.9918    1.7570   -0.3328 H         1 <0>         0.1096
     49 H16        -1.9792    0.2980   -0.4534 H         1 <0>         0.1108
     50 H17         0.3226    0.3152    0.4355 H         1 <0>         0.1197
     51 H18         2.3394    1.6854    0.7797 H         1 <0>         0.1259
     52 H19         2.1525    4.1363    0.9257 H         1 <0>         0.1263
     53 H20        -0.0511    5.2170    0.7275 H         1 <0>         0.1285
     54 H21        -2.0679    3.8468    0.3833 H         1 <0>         0.1278
     55 H22        -2.3811   -1.6083   -0.3510 H         1 <0>         0.1335
     56 H23        -0.8515   -3.3599   -1.1496 H         1 <0>         0.1389
     57 H24         0.8700   -4.2756    0.3497 H         1 <0>         0.1404
     58 H25         1.0730   -3.4481    2.6568 H         1 <0>         0.1449
@<TRIPOS>BOND
     1    1    2 1
     2    1   35 1
     3    1   36 1
     4    1   37 1
     5    2    3 1
     6    2    4 1
     7    2   15 1
     8    4    5 2
     9    4    6 am
    10    6    7 1
    11    6    8 1
    12    7   38 1
    13    7   39 1
    14    7   40 1
    15    8    9 1
    16    8   41 1
    17    8   42 1
    18    9   14 ar
    19    9   10 ar
    20   10   11 ar
    21   10   43 1
    22   11   12 ar
    23   11   44 1
    24   12   13 ar
    25   12   45 1
    26   13   14 ar
    27   13   46 1
    28   14   47 1
    29   15   16 1
    30   16   20 1
    31   16   17 2
    32   17   18 1
    33   18   19 2
    34   19   20 1
    35   19   28 1
    36   20   21 1
    37   21   22 1
    38   21   48 1
    39   21   49 1
    40   22   27 ar
    41   22   23 ar
    42   23   24 ar
    43   23   50 1
    44   24   25 ar
    45   24   51 1
    46   25   26 ar
    47   25   52 1
    48   26   27 ar
    49   26   53 1
    50   27   54 1
    51   28   33 ar
    52   28   29 ar
    53   29   30 ar
    54   29   55 1
    55   30   31 ar
    56   30   56 1
    57   31   32 ar
    58   31   57 1
    59   32   33 ar
    60   32   58 1
    61   33   34 1
@<TRIPOS>MOLECULE
ZINC03658693
   53    56     0     0     0
SMALL
USER_CHARGES
ethyl (2R)-2-[7-(3-fluorophenyl)-5-phenyl-pyrrolo[3,2-e]pyrimidin-4-yl]sulfanylbutanoate
@<TRIPOS>ATOM
      1 C1          1.2750   -9.3727   -2.8543 C.3       1 <0>        -0.1554
      2 C2          2.7151   -9.1501   -2.3878 C.3       1 <0>        -0.1040
      3 C3          3.0104   -7.6495   -2.3429 C.3       1 <0>        -0.0994
      4 H1          2.7849   -7.2057   -3.3125 H         1 <0>         0.1337
      5 C4          4.4660   -7.4336   -2.0179 C.2       1 <0>         0.4808
      6 O1          4.8079   -7.2421   -0.8749 O.2       1 <0>        -0.4936
      7 O2          5.3828   -7.4540   -2.9981 O.3       1 <0>        -0.3477
      8 C5          6.7658   -7.2386   -2.6119 C.3       1 <0>         0.0640
      9 C6          7.6572   -7.2966   -3.8541 C.3       1 <0>        -0.1523
     10 S1          1.9860   -6.8708   -1.0699 S.3       1 <0>         0.0686
     11 C7          2.3177   -5.1733   -1.4064 C.ar      1 <0>         0.2034
     12 C8          1.6502   -4.1582   -0.7064 C.ar      1 <0>        -0.1758
     13 C9          0.6330   -4.1217    0.3522 C.2       1 <0>        -0.0906
     14 C10         0.3913   -2.8127    0.6110 C.2       1 <0>         0.0750
     15 N1          1.1733   -2.0321   -0.1984 N.pl3     1 <0>        -0.4119
     16 C11         1.9448   -2.8192   -1.0141 C.ar      1 <0>         0.3413
     17 N2          2.8567   -2.5677   -1.9528 N.ar      1 <0>        -0.5260
     18 C12         3.4594   -3.5512   -2.5853 C.ar      1 <0>         0.3368
     19 N3          3.2083   -4.8226   -2.3312 N.ar      1 <0>        -0.5437
     20 C13         1.1796   -0.6314   -0.1972 C.ar      1 <0>         0.1502
     21 C14         2.3823    0.0588   -0.1166 C.ar      1 <0>        -0.1101
     22 C15         2.3868    1.4398   -0.1160 C.ar      1 <0>        -0.0707
     23 C16         1.1954    2.1370   -0.1955 C.ar      1 <0>        -0.1462
     24 C17        -0.0060    1.4528   -0.2760 C.ar      1 <0>         0.1183
     25 C18        -0.0158    0.0693   -0.2770 C.ar      1 <0>        -0.1548
     26 F1         -1.1682    2.1365   -0.3593 F         1 <0>        -0.1302
     27 C19        -0.0043   -5.2875    1.0095 C.ar      1 <0>        -0.0199
     28 C20        -0.5551   -6.3106    0.2390 C.ar      1 <0>        -0.0979
     29 C21        -1.1421   -7.3962    0.8566 C.ar      1 <0>        -0.1129
     30 C22        -1.1951   -7.4647    2.2373 C.ar      1 <0>        -0.1150
     31 C23        -0.6553   -6.4498    3.0069 C.ar      1 <0>        -0.1164
     32 C24        -0.0603   -5.3623    2.4006 C.ar      1 <0>        -0.1037
     33 H2          1.0931  -10.4406   -2.9749 H         1 <0>         0.0683
     34 H3          0.5862   -8.9682   -2.1127 H         1 <0>         0.0656
     35 H4          1.1198   -8.8678   -3.8078 H         1 <0>         0.0633
     36 H5          3.4011   -9.6348   -3.0825 H         1 <0>         0.0905
     37 H6          2.8445   -9.5758   -1.3928 H         1 <0>         0.0797
     38 H7          6.8632   -6.2608   -2.1401 H         1 <0>         0.0688
     39 H8          7.0715   -8.0133   -1.9088 H         1 <0>         0.0690
     40 H9          7.3514   -6.5218   -4.5572 H         1 <0>         0.0678
     41 H10         8.6954   -7.1349   -3.5641 H         1 <0>         0.0802
     42 H11         7.5597   -8.2743   -4.3258 H         1 <0>         0.0670
     43 H12        -0.3109   -2.4422    1.3432 H         1 <0>         0.1891
     44 H13         4.1896   -3.3090   -3.3433 H         1 <0>         0.2041
     45 H14         3.3137   -0.4844   -0.0548 H         1 <0>         0.1366
     46 H15         3.3222    1.9760   -0.0537 H         1 <0>         0.1455
     47 H16         1.2018    3.2170   -0.1951 H         1 <0>         0.1449
     48 H17        -0.9524   -0.4648   -0.3401 H         1 <0>         0.1440
     49 H18        -0.5185   -6.2558   -0.8390 H         1 <0>         0.1264
     50 H19        -1.5652   -8.1914    0.2609 H         1 <0>         0.1254
     51 H20        -1.6595   -8.3141    2.7162 H         1 <0>         0.1230
     52 H21        -0.6993   -6.5089    4.0844 H         1 <0>         0.1244
     53 H22         0.3614   -4.5709    3.0025 H         1 <0>         0.1225
@<TRIPOS>BOND
     1    1    2 1
     2    1   33 1
     3    1   34 1
     4    1   35 1
     5    2    3 1
     6    2   36 1
     7    2   37 1
     8    3    4 1
     9    3    5 1
    10    3   10 1
    11    5    6 2
    12    5    7 1
    13    7    8 1
    14    8    9 1
    15    8   38 1
    16    8   39 1
    17    9   40 1
    18    9   41 1
    19    9   42 1
    20   10   11 1
    21   11   19 ar
    22   11   12 ar
    23   12   16 ar
    24   12   13 1
    25   13   14 2
    26   13   27 1
    27   14   15 1
    28   14   43 1
    29   15   16 1
    30   15   20 1
    31   16   17 ar
    32   17   18 ar
    33   18   19 ar
    34   18   44 1
    35   20   25 ar
    36   20   21 ar
    37   21   22 ar
    38   21   45 1
    39   22   23 ar
    40   22   46 1
    41   23   24 ar
    42   23   47 1
    43   24   25 ar
    44   24   26 1
    45   25   48 1
    46   27   32 ar
    47   27   28 ar
    48   28   29 ar
    49   28   49 1
    50   29   30 ar
    51   29   50 1
    52   30   31 ar
    53   30   51 1
    54   31   32 ar
    55   31   52 1
    56   32   53 1
@<TRIPOS>MOLECULE
ZINC22519843
   44    47     0     0     0
SMALL
USER_CHARGES
4-[2-(2-thienyl)ethyl]-3-[[2-[4-(trifluoromethyl)phenyl]thiazol-4-yl]methylsulfanyl]-1,2,4-triazole
@<TRIPOS>ATOM
      1 C1          8.3236    0.7194    7.8369 C.2       1 <0>        -0.1589
      2 C2          8.2342    0.7174    6.4575 C.2       1 <0>        -0.1445
      3 C3          9.3177    1.0795    5.7280 C.2       1 <0>        -0.1525
      4 S1         10.5184    1.4334    7.0010 S.3       1 <0>         0.0399
      5 C4          9.4921    1.0835    8.4193 C.2       1 <0>        -0.1649
      6 C5          9.4711    1.1570    4.2309 C.3       1 <0>        -0.0502
      7 C6          9.0815    2.5562    3.7500 C.3       1 <0>         0.1074
      8 N1          9.2306    2.6315    2.2945 N.pl3     1 <0>        -0.4647
      9 C7         10.3135    3.0927    1.5982 C.2       1 <0>         0.1654
     10 N2         10.0334    2.9859    0.3301 N.2       1 <0>        -0.2841
     11 N3          8.8583    2.4880    0.1782 N.2       1 <0>        -0.2901
     12 C8          8.3173    2.2558    1.3517 C.2       1 <0>         0.1543
     13 S2          6.7181    1.5801    1.6528 S.3       1 <0>         0.0176
     14 C9          6.1463    1.3551   -0.0497 C.3       1 <0>        -0.0352
     15 C10         4.7573    0.7705   -0.0399 C.2       1 <0>         0.0621
     16 C11         4.5861   -0.5782   -0.0456 C.2       1 <0>        -0.1689
     17 S3          2.8009   -0.6842   -0.0217 S.3       1 <0>         0.0473
     18 C12         2.4785    1.0744   -0.0164 C.2       1 <0>         0.1447
     19 N4          3.7110    1.5624   -0.0256 N.2       1 <0>        -0.4760
     20 C13         1.1854    1.7914    0.0004 C.ar      1 <0>         0.0171
     21 C14        -0.0126    1.0758    0.0080 C.ar      1 <0>        -0.0938
     22 C15        -1.2158    1.7509    0.0173 C.ar      1 <0>        -0.0660
     23 C16        -1.2362    3.1342    0.0308 C.ar      1 <0>        -0.1661
     24 C17        -0.0520    3.8496    0.0233 C.ar      1 <0>        -0.0679
     25 C18         1.1578    3.1866    0.0082 C.ar      1 <0>        -0.0712
     26 C19        -2.5541    3.8649    0.0473 C.3       1 <0>         0.5078
     27 F1         -2.9745    4.0982   -1.2664 F         1 <0>        -0.1733
     28 F2         -3.5095    3.0885    0.7118 F         1 <0>        -0.1746
     29 F3         -2.4017    5.0865    0.7120 F         1 <0>        -0.1742
     30 H1          7.4752    0.4348    8.4415 H         1 <0>         0.1364
     31 H2          7.3149    0.4311    5.9683 H         1 <0>         0.1349
     32 H3          9.7394    1.1427    9.4690 H         1 <0>         0.1877
     33 H4         10.5173    0.9538    3.9585 H         1 <0>         0.0909
     34 H5          8.8170    0.4108    3.7562 H         1 <0>         0.0987
     35 H6          8.0353    2.7594    4.0224 H         1 <0>         0.1046
     36 H7          9.7356    3.3024    4.2247 H         1 <0>         0.1094
     37 H8         11.2310    3.4746    2.0210 H         1 <0>         0.2242
     38 H9          6.1311    2.3279   -0.5630 H         1 <0>         0.1183
     39 H10         6.8278    0.6723   -0.5782 H         1 <0>         0.1175
     40 H11         5.3237   -1.3670   -0.0574 H         1 <0>         0.2077
     41 H12         0.0021   -0.0041    0.0020 H         1 <0>         0.1404
     42 H13        -2.1437    1.1982    0.0187 H         1 <0>         0.1466
     43 H14        -0.0748    4.9293    0.0297 H         1 <0>         0.1464
     44 H15         2.0815    3.7462    0.0020 H         1 <0>         0.1498
@<TRIPOS>BOND
     1    1    5 2
     2    1    2 1
     3    1   30 1
     4    2    3 2
     5    2   31 1
     6    3    4 1
     7    3    6 1
     8    4    5 1
     9    5   32 1
    10    6    7 1
    11    6   33 1
    12    6   34 1
    13    7    8 1
    14    7   35 1
    15    7   36 1
    16    8   12 1
    17    8    9 1
    18    9   10 2
    19    9   37 1
    20   10   11 1
    21   11   12 2
    22   12   13 1
    23   13   14 1
    24   14   15 1
    25   14   38 1
    26   14   39 1
    27   15   19 1
    28   15   16 2
    29   16   17 1
    30   16   40 1
    31   17   18 1
    32   18   19 2
    33   18   20 1
    34   20   25 ar
    35   20   21 ar
    36   21   22 ar
    37   21   41 1
    38   22   23 ar
    39   22   42 1
    40   23   24 ar
    41   23   26 1
    42   24   25 ar
    43   24   43 1
    44   25   44 1
    45   26   27 1
    46   26   28 1
    47   26   29 1
@<TRIPOS>MOLECULE
ZINC35097282
   71    74     0     0     0
SMALL
USER_CHARGES

@<TRIPOS>ATOM
      1 C1         -0.8763    3.0576    1.2811 C.3       1 <0>        -0.1535
      2 C2         -0.7082    1.5538    1.0548 C.3       1 <0>        -0.1099
      3 C3         -2.0512    0.8527    1.2680 C.3       1 <0>        -0.1493
      4 C4         -1.8857   -0.6285    1.0450 C.2       1 <0>         0.5165
      5 O1         -0.8079   -1.0750    0.7133 O.2       1 <0>        -0.5310
      6 N1         -2.9352   -1.4569    1.2143 N.am      1 <0>        -0.6085
      7 C5         -2.7493   -2.9061    1.1070 C.3       1 <0>         0.1186
      8 C6         -2.4027   -3.4790    2.4826 C.3       1 <0>         0.0312
      9 N2         -2.2162   -4.9322    2.3751 N.3       1 <0>        -0.5330
     10 C7         -3.4752   -5.5994    2.0177 C.3       1 <0>         0.0368
     11 C8         -3.2027   -7.0813    1.7386 C.3       1 <0>         0.0968
     12 N3         -2.5026   -7.6542    2.8984 N.am      1 <0>        -0.6054
     13 C9         -1.3068   -6.9612    3.4013 C.3       1 <0>         0.1174
     14 C10        -1.6539   -5.4840    3.6149 C.3       1 <0>         0.0456
     15 C11        -2.9450   -8.7843    3.4844 C.2       1 <0>         0.5619
     16 O2         -2.3067   -9.2913    4.3861 O.2       1 <0>        -0.5266
     17 C12        -4.2067   -9.4074    3.0306 C.ar      1 <0>        -0.0981
     18 C13        -4.4586   -9.5669    1.6669 C.ar      1 <0>        -0.1059
     19 C14        -5.6371  -10.1493    1.2487 C.ar      1 <0>        -0.0923
     20 C15        -6.5698  -10.5757    2.1772 C.ar      1 <0>        -0.1323
     21 C16        -6.3273  -10.4205    3.5325 C.ar      1 <0>         0.0993
     22 C17        -5.1477   -9.8437    3.9639 C.ar      1 <0>        -0.1048
     23 F1         -7.2430  -10.8384    4.4337 F         1 <0>        -0.1331
     24 C18        -4.2620   -0.9082    1.5055 C.3       1 <0>         0.1511
     25 C19        -4.4228   -0.7465    2.9951 C.2       1 <0>        -0.1321
     26 C20        -4.2238    0.4119    3.5809 C.2       1 <0>        -0.1398
     27 C21        -4.4035    0.5333    5.0748 C.3       1 <0>        -0.0766
     28 C22        -4.7376   -0.8418    5.6690 C.3       1 <0>        -0.1055
     29 H1         -4.8486   -0.8381    6.7534 H         1 <0>         0.0820
     30 C23        -3.8448   -1.9647    5.1138 C.3       1 <0>        -0.1320
     31 C24        -4.8274   -1.9155    3.8763 C.3       1 <0>        -0.0632
     32 H2         -4.9915   -2.8538    3.3465 H         1 <0>         0.0844
     33 C25        -5.8976   -1.5050    4.8986 C.3       1 <0>        -0.0748
     34 C26        -6.9243   -0.5121    4.3499 C.3       1 <0>        -0.1429
     35 C27        -6.5361   -2.6843    5.6352 C.3       1 <0>        -0.1286
     36 H3          0.0806    3.5571    1.1293 H         1 <0>         0.0588
     37 H4         -1.6078    3.4517    0.5757 H         1 <0>         0.0545
     38 H5         -1.2213    3.2354    2.2997 H         1 <0>         0.0539
     39 H6         -0.3631    1.3760    0.0362 H         1 <0>         0.0693
     40 H7          0.0234    1.1598    1.7602 H         1 <0>         0.0680
     41 H8         -2.3963    1.0305    2.2865 H         1 <0>         0.0989
     42 H9         -2.7828    1.2468    0.5625 H         1 <0>         0.0914
     43 H10        -3.6690   -3.3645    0.7437 H         1 <0>         0.0738
     44 H11        -1.9381   -3.1177    0.4103 H         1 <0>         0.0936
     45 H12        -1.4829   -3.0206    2.8459 H         1 <0>         0.0759
     46 H13        -3.2139   -3.2674    3.1792 H         1 <0>         0.0575
     47 H14        -4.1819   -5.5086    2.8426 H         1 <0>         0.0402
     48 H15        -3.8941   -5.1325    1.1263 H         1 <0>         0.0901
     49 H16        -4.1465   -7.6047    1.5855 H         1 <0>         0.1010
     50 H17        -2.5789   -7.1779    0.8500 H         1 <0>         0.0837
     51 H18        -0.9971   -7.4051    4.3474 H         1 <0>         0.0978
     52 H19        -0.5007   -7.0462    2.6725 H         1 <0>         0.0806
     53 H20        -0.7519   -4.9333    3.8819 H         1 <0>         0.0899
     54 H21        -2.3860   -5.3948    4.4176 H         1 <0>         0.0393
     55 H22        -3.7320   -9.2344    0.9403 H         1 <0>         0.1402
     56 H23        -5.8322  -10.2724    0.1936 H         1 <0>         0.1427
     57 H24        -7.4908  -11.0310    1.8443 H         1 <0>         0.1423
     58 H25        -4.9568   -9.7269    5.0204 H         1 <0>         0.1432
     59 H26        -4.3680    0.0625    1.0211 H         1 <0>         0.0871
     60 H27        -5.0267   -1.5876    1.1291 H         1 <0>         0.0874
     61 H28        -3.9328    1.2727    2.9972 H         1 <0>         0.1186
     62 H29        -3.4824    0.9075    5.5217 H         1 <0>         0.0761
     63 H30        -5.2168    1.2274    5.2870 H         1 <0>         0.0818
     64 H31        -2.8223   -1.6520    4.9022 H         1 <0>         0.0690
     65 H32        -3.9002   -2.8940    5.6807 H         1 <0>         0.0815
     66 H33        -6.4083    0.3634    3.9557 H         1 <0>         0.0680
     67 H34        -7.4976   -0.9855    3.5528 H         1 <0>         0.0535
     68 H35        -7.5983   -0.2068    5.1502 H         1 <0>         0.0530
     69 H36        -7.2225   -2.3097    6.3945 H         1 <0>         0.0604
     70 H37        -7.0833   -3.3034    4.9243 H         1 <0>         0.0579
     71 H38        -5.7573   -3.2798    6.1114 H         1 <0>         0.0569
@<TRIPOS>BOND
     1    1    2 1
     2    1   36 1
     3    1   37 1
     4    1   38 1
     5    2    3 1
     6    2   39 1
     7    2   40 1
     8    3    4 1
     9    3   41 1
    10    3   42 1
    11    4    5 2
    12    4    6 am
    13    6    7 1
    14    6   24 1
    15    7    8 1
    16    7   43 1
    17    7   44 1
    18    8    9 1
    19    8   45 1
    20    8   46 1
    21    9   14 1
    22    9   10 1
    23   10   11 1
    24   10   47 1
    25   10   48 1
    26   11   12 1
    27   11   49 1
    28   11   50 1
    29   12   13 1
    30   12   15 am
    31   13   14 1
    32   13   51 1
    33   13   52 1
    34   14   53 1
    35   14   54 1
    36   15   16 2
    37   15   17 1
    38   17   22 ar
    39   17   18 ar
    40   18   19 ar
    41   18   55 1
    42   19   20 ar
    43   19   56 1
    44   20   21 ar
    45   20   57 1
    46   21   22 ar
    47   21   23 1
    48   22   58 1
    49   24   25 1
    50   24   59 1
    51   24   60 1
    52   25   31 1
    53   25   26 2
    54   26   27 1
    55   26   61 1
    56   27   28 1
    57   27   62 1
    58   27   63 1
    59   28   29 1
    60   28   33 1
    61   28   30 1
    62   30   31 1
    63   30   64 1
    64   30   65 1
    65   31   32 1
    66   31   33 1
    67   33   34 1
    68   33   35 1
    69   34   66 1
    70   34   67 1
    71   34   68 1
    72   35   69 1
    73   35   70 1
    74   35   71 1
@<TRIPOS>MOLECULE
ZINC39752863
   53    56     0     0     0
SMALL
USER_CHARGES

@<TRIPOS>ATOM
      1 C1          1.7986   -5.4205  -10.3680 C.3       1 <0>         0.0267
      2 O1          2.2607   -4.0993  -10.0799 O.3       1 <0>        -0.3164
      3 C2          2.3338   -3.7430   -8.7705 C.ar      1 <0>         0.1322
      4 C3          1.9737   -4.6484   -7.7829 C.ar      1 <0>        -0.2088
      5 C4          2.0492   -4.2839   -6.4526 C.ar      1 <0>        -0.0669
      6 C5          2.4829   -3.0179   -6.1049 C.ar      1 <0>        -0.1267
      7 C6          2.8419   -2.1136   -7.0873 C.ar      1 <0>        -0.0569
      8 C7          2.7740   -2.4752   -8.4188 C.ar      1 <0>        -0.1504
      9 C8          2.5639   -2.6229   -4.6529 C.3       1 <0>         0.0122
     10 C9          3.9571   -2.8803   -4.1392 C.2       1 <0>         0.2041
     11 N1          4.9770   -2.0748   -4.2354 N.2       1 <0>        -0.2742
     12 N2          6.0132   -2.6062   -3.6919 N.2       1 <0>        -0.2878
     13 C10         5.7097   -3.7910   -3.2142 C.2       1 <0>         0.1602
     14 N3          4.3847   -4.0017   -3.4795 N.pl3     1 <0>        -0.4093
     15 C11         3.6226   -5.1330   -3.1478 C.ar      1 <0>         0.0634
     16 C12         2.5921   -5.0293   -2.2237 C.ar      1 <0>        -0.0595
     17 C13         1.8424   -6.1422   -1.8980 C.ar      1 <0>        -0.1377
     18 C14         2.1193   -7.3640   -2.4939 C.ar      1 <0>         0.1498
     19 C15         3.1495   -7.4682   -3.4172 C.ar      1 <0>        -0.1950
     20 C16         3.8957   -6.3544   -3.7480 C.ar      1 <0>        -0.0518
     21 O2          1.3813   -8.4596   -2.1726 O.3       1 <0>        -0.3100
     22 C17         1.7215   -9.6849   -2.8244 C.3       1 <0>         0.0229
     23 S1          6.8007   -4.8967   -2.3825 S.3       1 <0>         0.0112
     24 C18         8.3848   -4.0132   -2.3563 C.3       1 <0>        -0.0630
     25 C19         9.4208   -4.8600   -1.6629 C.ar      1 <0>        -0.0527
     26 C20         9.5971   -4.7546   -0.2956 C.ar      1 <0>        -0.1077
     27 C21        10.5469   -5.5306    0.3417 C.ar      1 <0>        -0.0885
     28 C22        11.3220   -6.4126   -0.3874 C.ar      1 <0>        -0.1437
     29 C23        11.1464   -6.5190   -1.7565 C.ar      1 <0>         0.1002
     30 C24        10.1903   -5.7455   -2.3930 C.ar      1 <0>        -0.1335
     31 F1         11.9038   -7.3805   -2.4702 F         1 <0>        -0.1362
     32 H1          2.4645   -6.1476   -9.9033 H         1 <0>         0.0549
     33 H2          0.7905   -5.5469   -9.9734 H         1 <0>         0.0564
     34 H3          1.7885   -5.5746  -11.4470 H         1 <0>         0.1018
     35 H4          1.6342   -5.6372   -8.0540 H         1 <0>         0.1282
     36 H5          1.7690   -4.9884   -5.6834 H         1 <0>         0.1207
     37 H6          3.1800   -1.1252   -6.8132 H         1 <0>         0.1357
     38 H7          3.0588   -1.7700   -9.1856 H         1 <0>         0.1337
     39 H8          2.3291   -1.5633   -4.5510 H         1 <0>         0.1124
     40 H9          1.8496   -3.2104   -4.0761 H         1 <0>         0.0926
     41 H10         2.3769   -4.0783   -1.7592 H         1 <0>         0.1391
     42 H11         1.0406   -6.0616   -1.1789 H         1 <0>         0.1457
     43 H12         3.3653   -8.4197   -3.8803 H         1 <0>         0.1413
     44 H13         4.6945   -6.4345   -4.4704 H         1 <0>         0.1337
     45 H14         1.0572  -10.4770   -2.4787 H         1 <0>         0.1058
     46 H15         1.6139   -9.5651   -3.9024 H         1 <0>         0.0592
     47 H16         2.7530   -9.9474   -2.5892 H         1 <0>         0.0602
     48 H17         8.7053   -3.8115   -3.3784 H         1 <0>         0.1088
     49 H18         8.2669   -3.0717   -1.8200 H         1 <0>         0.1111
     50 H19         8.9924   -4.0651    0.2748 H         1 <0>         0.1353
     51 H20        10.6837   -5.4474    1.4098 H         1 <0>         0.1386
     52 H21        12.0646   -7.0183    0.1107 H         1 <0>         0.1390
     53 H22        10.0494   -5.8309   -3.4604 H         1 <0>         0.1397
@<TRIPOS>BOND
     1    1    2 1
     2    1   32 1
     3    1   33 1
     4    1   34 1
     5    2    3 1
     6    3    8 ar
     7    3    4 ar
     8    4    5 ar
     9    4   35 1
    10    5    6 ar
    11    5   36 1
    12    6    7 ar
    13    6    9 1
    14    7    8 ar
    15    7   37 1
    16    8   38 1
    17    9   10 1
    18    9   39 1
    19    9   40 1
    20   10   14 1
    21   10   11 2
    22   11   12 1
    23   12   13 2
    24   13   14 1
    25   13   23 1
    26   14   15 1
    27   15   20 ar
    28   15   16 ar
    29   16   17 ar
    30   16   41 1
    31   17   18 ar
    32   17   42 1
    33   18   19 ar
    34   18   21 1
    35   19   20 ar
    36   19   43 1
    37   20   44 1
    38   21   22 1
    39   22   45 1
    40   22   46 1
    41   22   47 1
    42   23   24 1
    43   24   25 1
    44   24   48 1
    45   24   49 1
    46   25   30 ar
    47   25   26 ar
    48   26   27 ar
    49   26   50 1
    50   27   28 ar
    51   27   51 1
    52   28   29 ar
    53   28   52 1
    54   29   30 ar
    55   29   31 1
    56   30   53 1
@<TRIPOS>MOLECULE
ZINC11541037
   45    48     0     0     0
SMALL
USER_CHARGES
3-[2-(4-bromophenyl)sulfonylethylsulfanyl]-4-cyclopropyl-5-(2-thienylmethyl)-1,2,4-triazole
@<TRIPOS>ATOM
      1 C1          4.1512    3.4579   -6.3931 C.2       1 <0>        -0.1570
      2 C2          3.6348    2.1959   -6.1666 C.2       1 <0>        -0.1317
      3 C3          2.2965    2.0055   -6.2672 C.2       1 <0>        -0.1552
      4 S1          1.7226    3.6396   -6.7003 S.3       1 <0>         0.0271
      5 C4          3.3041    4.4678   -6.7091 C.2       1 <0>        -0.1618
      6 C5          1.5004    0.7411   -6.0708 C.3       1 <0>         0.0555
      7 C6          1.0877    0.6267   -4.6259 C.2       1 <0>         0.1978
      8 N1          1.7607    0.0439   -3.6745 N.2       1 <0>        -0.2689
      9 N2          1.1218    0.1343   -2.5629 N.2       1 <0>        -0.2811
     10 C7         -0.0072    0.7780   -2.7486 C.2       1 <0>         0.1471
     11 N3         -0.0626    1.1152   -4.0705 N.pl3     1 <0>        -0.4274
     12 C8         -1.1322    1.8482   -4.7523 C.3       1 <0>         0.0448
     13 C9         -2.1181    2.6306   -3.8825 C.3       1 <0>        -0.1720
     14 C10        -2.5636    1.3388   -4.5724 C.3       1 <0>        -0.1696
     15 S2         -1.2183    1.1442   -1.5223 S.3       1 <0>         0.0448
     16 C11        -0.4383    0.3880   -0.0746 C.3       1 <0>        -0.1248
     17 C12        -1.3349    0.5856    1.1493 C.3       1 <0>        -0.6006
     18 S3         -0.5532   -0.1723    2.6003 S.o2      1 <0>         2.5047
     19 O1         -0.5241   -1.5859    2.4581 O.2       1 <0>        -0.9207
     20 O2          0.6217    0.5446    2.9536 O.2       1 <0>        -0.9207
     21 C13        -1.6760    0.1233    3.9257 C.ar      1 <0>        -0.6510
     22 C14        -1.5571    1.2695    4.6893 C.ar      1 <0>        -0.0157
     23 C15        -2.4405    1.5042    5.7261 C.ar      1 <0>        -0.1113
     24 C16        -3.4372    0.5868    6.0062 C.ar      1 <0>        -0.0388
     25 C17        -3.5525   -0.5625    5.2451 C.ar      1 <0>        -0.1113
     26 C18        -2.6719   -0.7938    4.2052 C.ar      1 <0>        -0.0157
     27 Br1        -4.6421    0.9040    7.4286 Br        1 <0>        -0.0298
     28 H1          5.2138    3.6366   -6.3197 H         1 <0>         0.1377
     29 H2          4.2878    1.3739   -5.9129 H         1 <0>         0.1390
     30 H3          3.5282    5.5038   -6.9164 H         1 <0>         0.1879
     31 H4          2.1118   -0.1192   -6.3432 H         1 <0>         0.1274
     32 H5          0.6118    0.7697   -6.7013 H         1 <0>         0.1014
     33 H6         -0.8674    2.2739   -5.7202 H         1 <0>         0.1502
     34 H7         -1.9710    2.5999   -2.8029 H         1 <0>         0.1169
     35 H8         -2.5023    3.5707   -4.2783 H         1 <0>         0.1238
     36 H9         -3.2406    1.4296   -5.4218 H         1 <0>         0.1198
     37 H10        -2.7095    0.4580   -3.9471 H         1 <0>         0.1104
     38 H11        -0.2971   -0.6780   -0.2532 H         1 <0>         0.1161
     39 H12         0.5289    0.8578    0.1040 H         1 <0>         0.1161
     40 H13        -1.4762    1.6515    1.3280 H         1 <0>         0.1482
     41 H14        -2.3022    0.1158    0.9708 H         1 <0>         0.1483
     42 H15        -0.7763    1.9837    4.4732 H         1 <0>         0.1538
     43 H16        -2.3503    2.4018    6.3198 H         1 <0>         0.1463
     44 H17        -4.3308   -1.2789    5.4632 H         1 <0>         0.1463
     45 H18        -2.7620   -1.6909    3.6107 H         1 <0>         0.1538
@<TRIPOS>BOND
     1    1    5 2
     2    1    2 1
     3    1   28 1
     4    2    3 2
     5    2   29 1
     6    3    4 1
     7    3    6 1
     8    4    5 1
     9    5   30 1
    10    6    7 1
    11    6   31 1
    12    6   32 1
    13    7   11 1
    14    7    8 2
    15    8    9 1
    16    9   10 2
    17   10   11 1
    18   10   15 1
    19   11   12 1
    20   12   14 1
    21   12   13 1
    22   12   33 1
    23   13   14 1
    24   13   34 1
    25   13   35 1
    26   14   36 1
    27   14   37 1
    28   15   16 1
    29   16   17 1
    30   16   38 1
    31   16   39 1
    32   17   18 1
    33   17   40 1
    34   17   41 1
    35   18   19 2
    36   18   20 2
    37   18   21 1
    38   21   26 ar
    39   21   22 ar
    40   22   23 ar
    41   22   42 1
    42   23   24 ar
    43   23   43 1
    44   24   25 ar
    45   24   27 1
    46   25   26 ar
    47   25   44 1
    48   26   45 1
@<TRIPOS>MOLECULE
ZINC02908850
   50    52     0     0     0
SMALL
USER_CHARGES
2-[3-(4-bromophenyl)-4-oxo-thieno[3,2-d]pyrimidin-2-yl]sulfanyl-N,N-dipropyl-acetamide
@<TRIPOS>ATOM
      1 C1         -0.9638    8.3332    3.8104 C.3       1 <0>        -0.1530
      2 C2          0.4694    7.8033    3.8888 C.3       1 <0>        -0.1441
      3 C3          1.2193    8.1692    2.6063 C.3       1 <0>         0.1003
      4 N1          2.5916    7.6618    2.6814 N.am      1 <0>        -0.6040
      5 C4          3.6519    8.4985    3.2488 C.3       1 <0>         0.1126
      6 C5          4.2932    9.3323    2.1377 C.3       1 <0>        -0.1398
      7 C6          5.4005   10.2061    2.7303 C.3       1 <0>        -0.1519
      8 C7          2.8786    6.4253    2.2285 C.2       1 <0>         0.5324
      9 O1          4.0147    6.0053    2.2906 O.2       1 <0>        -0.5209
     10 C8          1.7879    5.5646    1.6448 C.3       1 <0>        -0.1543
     11 S1          2.4840    3.9749    1.1305 S.3       1 <0>         0.0948
     12 C9          1.0336    3.1939    0.5051 C.2       1 <0>         0.3604
     13 N2         -0.0946    3.8499    0.5429 N.2       1 <0>        -0.5180
     14 C10        -1.2604    3.3108    0.0770 C.2       1 <0>         0.1766
     15 C11        -2.5382    3.8880    0.0521 C.2       1 <0>        -0.1583
     16 C12        -3.5851    3.1993   -0.4503 C.2       1 <0>        -0.1248
     17 S2         -2.8411    1.6517   -0.9384 S.3       1 <0>         0.1762
     18 C13        -1.1738    2.0098   -0.4508 C.2       1 <0>        -0.3239
     19 C14         0.0316    1.3140   -0.4826 C.2       1 <0>         0.5875
     20 O2          0.0904    0.1843   -0.9392 O.2       1 <0>        -0.5035
     21 N3          1.1387    1.9265    0.0015 N.am      1 <0>        -0.4752
     22 C15         2.3763    1.2699   -0.0138 C.ar      1 <0>         0.1095
     23 C16         3.2158    1.3938   -1.1128 C.ar      1 <0>        -0.0802
     24 C17         4.4375    0.7498   -1.1231 C.ar      1 <0>        -0.0794
     25 C18         4.8204   -0.0272   -0.0442 C.ar      1 <0>        -0.0707
     26 C19         3.9835   -0.1567    1.0500 C.ar      1 <0>        -0.0794
     27 C20         2.7630    0.4894    1.0676 C.ar      1 <0>        -0.0803
     28 Br1         6.4908   -0.9134   -0.0648 Br        1 <0>        -0.0337
     29 H1         -1.5029    8.0701    4.7324 H         1 <0>         0.0602
     30 H2         -1.4743    7.8833    2.9461 H         1 <0>         0.0585
     31 H3         -0.9445    9.4271    3.6963 H         1 <0>         0.0579
     32 H4          0.9799    8.2532    4.7531 H         1 <0>         0.0688
     33 H5          0.4502    6.7094    4.0029 H         1 <0>         0.0651
     34 H6          0.7088    7.7193    1.7420 H         1 <0>         0.0841
     35 H7          1.2385    9.2631    2.4922 H         1 <0>         0.0867
     36 H8          3.2233    9.1682    4.0089 H         1 <0>         0.0811
     37 H9          4.4156    7.8576    3.7136 H         1 <0>         0.0881
     38 H10         4.7218    8.6626    1.3776 H         1 <0>         0.0675
     39 H11         3.5295    9.9732    1.6729 H         1 <0>         0.0631
     40 H12         5.8616   10.8056    1.9315 H         1 <0>         0.0591
     41 H13         6.1642    9.5651    3.1950 H         1 <0>         0.0583
     42 H14         4.9718   10.8758    3.4904 H         1 <0>         0.0561
     43 H15         1.0089    5.3957    2.4028 H         1 <0>         0.1322
     44 H16         1.3478    6.0713    0.7733 H         1 <0>         0.1318
     45 H17        -2.6853    4.8866    0.4364 H         1 <0>         0.1503
     46 H18        -4.6166    3.5079   -0.5356 H         1 <0>         0.2052
     47 H19         2.9155    1.9967   -1.9571 H         1 <0>         0.1390
     48 H20         5.0927    0.8493   -1.9759 H         1 <0>         0.1466
     49 H21         4.2847   -0.7638    1.8908 H         1 <0>         0.1465
     50 H22         2.1098    0.3875    1.9216 H         1 <0>         0.1389
@<TRIPOS>BOND
     1    1    2 1
     2    1   29 1
     3    1   30 1
     4    1   31 1
     5    2    3 1
     6    2   32 1
     7    2   33 1
     8    3    4 1
     9    3   34 1
    10    3   35 1
    11    4    5 1
    12    4    8 am
    13    5    6 1
    14    5   36 1
    15    5   37 1
    16    6    7 1
    17    6   38 1
    18    6   39 1
    19    7   40 1
    20    7   41 1
    21    7   42 1
    22    8    9 2
    23    8   10 1
    24   10   11 1
    25   10   43 1
    26   10   44 1
    27   11   12 1
    28   12   21 1
    29   12   13 2
    30   13   14 1
    31   14   18 2
    32   14   15 1
    33   15   16 2
    34   15   45 1
    35   16   17 1
    36   16   46 1
    37   17   18 1
    38   18   19 1
    39   19   20 2
    40   19   21 am
    41   21   22 1
    42   22   27 ar
    43   22   23 ar
    44   23   24 ar
    45   23   47 1
    46   24   25 ar
    47   24   48 1
    48   25   26 ar
    49   25   28 1
    50   26   27 ar
    51   26   49 1
    52   27   50 1
@<TRIPOS>MOLECULE
ZINC33783419
   68    70     0     0     0
SMALL
USER_CHARGES
N-isopropyl-N-[2-[[(1S)-1-methylpropyl]-[[1-(o-tolylmethyl)pyrrol-2-yl]methyl]amino]-2-oxo-ethyl]thiophene-2-carboxamide
@<TRIPOS>ATOM
      1 C1          1.6481   -0.1436   -2.3805 C.3       1 <0>        -0.1506
      2 C2          0.2770    0.5154   -2.5441 C.3       1 <0>        -0.1437
      3 C3         -0.4913    0.4285   -1.2238 C.3       1 <0>         0.1505
      4 H1         -0.5069   -0.6066   -0.8520 H         1 <0>         0.0792
      5 C4         -1.9154    0.9496   -1.4273 C.3       1 <0>        -0.1726
      6 N1          0.1859    1.2412   -0.2103 N.am      1 <0>        -0.6028
      7 C5          0.6615    0.6205    1.0285 C.3       1 <0>         0.1636
      8 C6         -0.3936    0.7567    2.0959 C.2       1 <0>        -0.0037
      9 C7         -0.4565    1.7315    3.0255 C.2       1 <0>        -0.1855
     10 C8         -1.5926    1.4832    3.8209 C.2       1 <0>        -0.1938
     11 C9         -2.1807    0.3660    3.3470 C.2       1 <0>        -0.0053
     12 N2         -1.4526   -0.0811    2.2845 N.pl3     1 <0>        -0.4247
     13 C10        -1.7558   -1.2679    1.4808 C.3       1 <0>         0.1340
     14 C11        -0.9384   -2.4327    1.9768 C.ar      1 <0>        -0.1158
     15 C12         0.2749   -2.7282    1.3835 C.ar      1 <0>        -0.1026
     16 C13         1.0246   -3.7966    1.8383 C.ar      1 <0>        -0.1233
     17 C14         0.5617   -4.5692    2.8873 C.ar      1 <0>        -0.1046
     18 C15        -0.6508   -4.2732    3.4810 C.ar      1 <0>        -0.1191
     19 C16        -1.3989   -3.2021    3.0285 C.ar      1 <0>        -0.0606
     20 C17        -2.7185   -2.8762    3.6793 C.3       1 <0>        -0.1304
     21 C18         0.3714    2.5600   -0.4176 C.2       1 <0>         0.5070
     22 O1         -0.0983    3.0911   -1.4016 O.2       1 <0>        -0.5051
     23 C19         1.1623    3.3746    0.5733 C.3       1 <0>         0.0636
     24 N3          1.0857    4.7922    0.2117 N.am      1 <0>        -0.5837
     25 C20         0.0564    5.6461    0.8098 C.3       1 <0>         0.1352
     26 C21        -1.3224    5.0292    0.5667 C.3       1 <0>        -0.1604
     27 C22         0.3038    5.7650    2.3149 C.3       1 <0>        -0.1643
     28 C23         1.9622    5.3108   -0.6711 C.2       1 <0>         0.6136
     29 O2          1.9646    6.5071   -0.8949 O.2       1 <0>        -0.5212
     30 C24         2.9124    4.4340   -1.3618 C.2       1 <0>        -0.2363
     31 C25         3.9576    4.7720   -2.2070 C.2       1 <0>        -0.0717
     32 C26         4.7032    3.7411   -2.7224 C.2       1 <0>        -0.1729
     33 C27         4.3823    2.4619   -2.3948 C.2       1 <0>        -0.2027
     34 S1          3.0200    2.6533   -1.3398 S.3       1 <0>         0.1484
     35 H2          2.2005   -0.0812   -3.3297 H         1 <0>         0.0561
     36 H3          1.5165   -1.1995   -2.1016 H         1 <0>         0.0523
     37 H4          2.2130    0.3761   -1.5926 H         1 <0>         0.0533
     38 H5          0.4086    1.5713   -2.8230 H         1 <0>         0.0911
     39 H6         -0.2879   -0.0042   -3.3320 H         1 <0>         0.0721
     40 H7         -2.4678    0.8871   -0.4781 H         1 <0>         0.0524
     41 H8         -2.4239    0.3394   -2.1883 H         1 <0>         0.0629
     42 H9         -1.8783    1.9969   -1.7618 H         1 <0>         0.0853
     43 H10         0.8664   -0.4453    0.8494 H         1 <0>         0.0935
     44 H11         1.5838    1.1208    1.3587 H         1 <0>         0.0991
     45 H12         0.2365    2.5520    3.1392 H         1 <0>         0.1319
     46 H13        -1.9305    2.0783    4.6563 H         1 <0>         0.1357
     47 H14        -3.0767   -0.0926    3.7384 H         1 <0>         0.1611
     48 H15        -2.8259   -1.5069    1.5690 H         1 <0>         0.1011
     49 H16        -1.5100   -1.0698    0.4271 H         1 <0>         0.0985
     50 H17         0.6367   -2.1245    0.5643 H         1 <0>         0.1206
     51 H18         1.9722   -4.0276    1.3746 H         1 <0>         0.1251
     52 H19         1.1476   -5.4038    3.2429 H         1 <0>         0.1250
     53 H20        -1.0123   -4.8765    4.3006 H         1 <0>         0.1247
     54 H21        -2.9143   -3.5931    4.4903 H         1 <0>         0.0700
     55 H22        -3.5222   -2.9407    2.9310 H         1 <0>         0.0714
     56 H23        -2.6822   -1.8570    4.0916 H         1 <0>         0.0771
     57 H24         0.7465    3.2303    1.5814 H         1 <0>         0.1263
     58 H25         2.2129    3.0490    0.5600 H         1 <0>         0.1090
     59 H26         0.1308    6.6312    0.3260 H         1 <0>         0.1074
     60 H27        -2.0953    5.6703    1.0158 H         1 <0>         0.0681
     61 H28        -1.3630    4.0301    1.0250 H         1 <0>         0.0567
     62 H29        -1.5002    4.9437   -0.5155 H         1 <0>         0.0689
     63 H30        -0.4690    6.4061    2.7640 H         1 <0>         0.0737
     64 H31         1.2952    6.2085    2.4896 H         1 <0>         0.0618
     65 H32         0.2631    4.7658    2.7732 H         1 <0>         0.0588
     66 H33         4.1775    5.8016   -2.4475 H         1 <0>         0.1468
     67 H34         5.5323    3.9440   -3.3841 H         1 <0>         0.1384
     68 H35         4.8601    1.5476   -2.7143 H         1 <0>         0.1859
@<TRIPOS>BOND
     1    1    2 1
     2    1   35 1
     3    1   36 1
     4    1   37 1
     5    2    3 1
     6    2   38 1
     7    2   39 1
     8    3    4 1
     9    3    5 1
    10    3    6 1
    11    5   40 1
    12    5   41 1
    13    5   42 1
    14    6    7 1
    15    6   21 am
    16    7    8 1
    17    7   43 1
    18    7   44 1
    19    8   12 1
    20    8    9 2
    21    9   10 1
    22    9   45 1
    23   10   11 2
    24   10   46 1
    25   11   12 1
    26   11   47 1
    27   12   13 1
    28   13   14 1
    29   13   48 1
    30   13   49 1
    31   14   19 ar
    32   14   15 ar
    33   15   16 ar
    34   15   50 1
    35   16   17 ar
    36   16   51 1
    37   17   18 ar
    38   17   52 1
    39   18   19 ar
    40   18   53 1
    41   19   20 1
    42   20   54 1
    43   20   55 1
    44   20   56 1
    45   21   22 2
    46   21   23 1
    47   23   24 1
    48   23   57 1
    49   23   58 1
    50   24   25 1
    51   24   28 am
    52   25   26 1
    53   25   27 1
    54   25   59 1
    55   26   60 1
    56   26   61 1
    57   26   62 1
    58   27   63 1
    59   27   64 1
    60   27   65 1
    61   28   29 2
    62   28   30 1
    63   30   34 1
    64   30   31 2
    65   31   32 1
    66   31   66 1
    67   32   33 2
    68   32   67 1
    69   33   34 1
    70   33   68 1
@<TRIPOS>MOLECULE
ZINC35795415
   64    66     0     0     0
SMALL
USER_CHARGES

@<TRIPOS>ATOM
      1 C1         -0.1960    1.6755    0.6335 C.3       1 <0>        -0.1523
      2 C2         -0.1331    0.1809    0.3125 C.3       1 <0>        -0.1156
      3 C3         -1.5469   -0.4038    0.3267 C.3       1 <0>        -0.1105
      4 H1         -2.0212   -0.1842    1.2832 H         1 <0>         0.0749
      5 C4         -2.3677    0.2189   -0.8044 C.3       1 <0>        -0.1502
      6 C5         -1.4741   -1.9193    0.1294 C.3       1 <0>         0.1061
      7 N1         -2.8152   -2.4939    0.2619 N.am      1 <0>        -0.5834
      8 C6         -3.6256   -2.7455   -0.9323 C.3       1 <0>         0.0956
      9 C7         -3.3533   -4.1381   -1.4399 C.2       1 <0>         0.5061
     10 O1         -2.5605   -4.8503   -0.8611 O.2       1 <0>        -0.5176
     11 N2         -3.9910   -4.5921   -2.5370 N.am      1 <0>        -0.6020
     12 C8         -3.7263   -5.9459   -3.0305 C.3       1 <0>         0.1576
     13 C9         -4.6836   -6.9127   -2.3826 C.ar      1 <0>        -0.1108
     14 C10        -4.3462   -7.5250   -1.1900 C.ar      1 <0>        -0.0914
     15 C11        -5.2243   -8.4119   -0.5957 C.ar      1 <0>        -0.1211
     16 C12        -6.4401   -8.6862   -1.1937 C.ar      1 <0>        -0.1139
     17 C13        -6.7779   -8.0733   -2.3858 C.ar      1 <0>        -0.1238
     18 C14        -5.9016   -7.1831   -2.9780 C.ar      1 <0>        -0.1079
     19 C15        -4.9487   -3.7318   -3.2362 C.3       1 <0>         0.1914
     20 C16        -4.2291   -2.9341   -4.2930 C.2       1 <0>        -0.1812
     21 C17        -4.0040   -3.2464   -5.5927 C.2       1 <0>        -0.1257
     22 C18        -3.3130   -2.3510   -6.3873 C.2       1 <0>        -0.1676
     23 C19        -2.8807   -1.1871   -5.8434 C.2       1 <0>        -0.1283
     24 S1         -3.4585   -1.3292   -4.1601 S.3       1 <0>         0.0343
     25 C20        -2.1159   -0.0626   -6.4925 C.3       1 <0>        -0.0749
     26 C21        -3.3034   -2.7912    1.4825 C.2       1 <0>         0.5668
     27 O2         -4.3797   -3.3461    1.5880 O.2       1 <0>        -0.5056
     28 C22        -2.5300   -2.4424    2.6927 C.ar      1 <0>        -0.0924
     29 C23        -1.2395   -2.9450    2.8692 C.ar      1 <0>        -0.0856
     30 C24        -0.5230   -2.6153    4.0006 C.ar      1 <0>        -0.1054
     31 C25        -1.0803   -1.7885    4.9606 C.ar      1 <0>        -0.0945
     32 C26        -2.3581   -1.2871    4.7933 C.ar      1 <0>        -0.0935
     33 C27        -3.0847   -1.6040    3.6622 C.ar      1 <0>        -0.0543
     34 Br1        -4.8287   -0.9108    3.4307 Br        1 <0>        -0.0307
     35 H2          0.8112    2.0920    0.6233 H         1 <0>         0.0544
     36 H3         -0.8063    2.1823   -0.1141 H         1 <0>         0.0570
     37 H4         -0.6378    1.8170    1.6198 H         1 <0>         0.0534
     38 H5          0.3087    0.0394   -0.6739 H         1 <0>         0.0641
     39 H6          0.4772   -0.3259    1.0600 H         1 <0>         0.0631
     40 H7         -1.8933   -0.0006   -1.7609 H         1 <0>         0.0566
     41 H8         -3.3749   -0.1976   -0.7943 H         1 <0>         0.0536
     42 H9         -2.4195    1.2986   -0.6639 H         1 <0>         0.0613
     43 H10        -1.0816   -2.1380   -0.8636 H         1 <0>         0.0829
     44 H11        -0.8170   -2.3526    0.8834 H         1 <0>         0.0882
     45 H12        -4.6820   -2.6504   -0.6812 H         1 <0>         0.1132
     46 H13        -3.3690   -2.0206   -1.7048 H         1 <0>         0.1096
     47 H14        -3.8607   -5.9712   -4.1119 H         1 <0>         0.0864
     48 H15        -2.7027   -6.2285   -2.7848 H         1 <0>         0.0934
     49 H16        -3.3964   -7.3106   -0.7228 H         1 <0>         0.1257
     50 H17        -4.9604   -8.8907    0.3357 H         1 <0>         0.1212
     51 H18        -7.1258   -9.3797   -0.7298 H         1 <0>         0.1213
     52 H19        -7.7275   -8.2879   -2.8532 H         1 <0>         0.1219
     53 H20        -6.1670   -6.7014   -3.9074 H         1 <0>         0.1191
     54 H21        -5.7155   -4.3481   -3.7055 H         1 <0>         0.1078
     55 H22        -5.4150   -3.0523   -2.5228 H         1 <0>         0.0947
     56 H23        -4.3591   -4.1810   -6.0012 H         1 <0>         0.1327
     57 H24        -3.1200   -2.5756   -7.4259 H         1 <0>         0.1339
     58 H25        -2.8169    0.6597   -6.9107 H         1 <0>         0.0814
     59 H26        -1.4896    0.4283   -5.7476 H         1 <0>         0.0748
     60 H27        -1.4879   -0.4623   -7.2887 H         1 <0>         0.0827
     61 H28        -0.8033   -3.5908    2.1215 H         1 <0>         0.1396
     62 H29         0.4754   -3.0036    4.1380 H         1 <0>         0.1368
     63 H30        -0.5146   -1.5341    5.8447 H         1 <0>         0.1372
     64 H31        -2.7872   -0.6431    5.5466 H         1 <0>         0.1394
@<TRIPOS>BOND
     1    1    2 1
     2    1   35 1
     3    1   36 1
     4    1   37 1
     5    2    3 1
     6    2   38 1
     7    2   39 1
     8    3    4 1
     9    3    5 1
    10    3    6 1
    11    5   40 1
    12    5   41 1
    13    5   42 1
    14    6    7 1
    15    6   43 1
    16    6   44 1
    17    7    8 1
    18    7   26 am
    19    8    9 1
    20    8   45 1
    21    8   46 1
    22    9   10 2
    23    9   11 am
    24   11   12 1
    25   11   19 1
    26   12   13 1
    27   12   47 1
    28   12   48 1
    29   13   18 ar
    30   13   14 ar
    31   14   15 ar
    32   14   49 1
    33   15   16 ar
    34   15   50 1
    35   16   17 ar
    36   16   51 1
    37   17   18 ar
    38   17   52 1
    39   18   53 1
    40   19   20 1
    41   19   54 1
    42   19   55 1
    43   20   24 1
    44   20   21 2
    45   21   22 1
    46   21   56 1
    47   22   23 2
    48   22   57 1
    49   23   24 1
    50   23   25 1
    51   25   58 1
    52   25   59 1
    53   25   60 1
    54   26   27 2
    55   26   28 1
    56   28   33 ar
    57   28   29 ar
    58   29   30 ar
    59   29   61 1
    60   30   31 ar
    61   30   62 1
    62   31   32 ar
    63   31   63 1
    64   32   33 ar
    65   32   64 1
    66   33   34 1
@<TRIPOS>MOLECULE
ZINC39502615
   59    63     0     0     0
SMALL
USER_CHARGES

@<TRIPOS>ATOM
      1 C1         -0.0187    1.5258    0.0104 C.3       1 <0>        -0.1512
      2 C2          0.0021   -0.0041    0.0020 C.3       1 <0>         0.0636
      3 O1         -1.3386   -0.4987    0.0122 O.3       1 <0>        -0.3486
      4 C3         -1.4970   -1.8371    0.0065 C.2       1 <0>         0.5032
      5 O2         -0.5234   -2.5642   -0.0067 O.2       1 <0>        -0.4474
      6 C4         -2.8505   -2.4187    0.0163 C.ar      1 <0>        -0.0507
      7 C5         -3.5025   -2.6937   -1.1982 C.ar      1 <0>        -0.0702
      8 C6         -4.7492   -3.2297   -1.2160 C.ar      1 <0>        -0.0716
      9 C7         -5.4153   -3.5216   -0.0100 C.ar      1 <0>        -0.0270
     10 C8         -6.7052   -4.0770   -0.0140 C.ar      1 <0>        -0.1113
     11 C9         -7.3277   -4.3503    1.1680 C.ar      1 <0>         0.0860
     12 C10        -6.6993   -4.0853    2.3878 C.ar      1 <0>         0.0829
     13 C11        -5.4473   -3.5466    2.4261 C.ar      1 <0>        -0.1060
     14 C12        -4.7793   -3.2535    1.2273 C.ar      1 <0>        -0.0227
     15 C13        -3.4785   -2.7000    1.2341 C.ar      1 <0>         0.0219
     16 C14        -2.7923   -2.4167    2.5130 C.ar      1 <0>        -0.0734
     17 C15        -1.6269   -3.1071    2.8514 C.ar      1 <0>        -0.0927
     18 C16        -0.9918   -2.8381    4.0458 C.ar      1 <0>        -0.1131
     19 C17        -1.5075   -1.8866    4.9083 C.ar      1 <0>        -0.0991
     20 C18        -2.6619   -1.1988    4.5791 C.ar      1 <0>        -0.0751
     21 C19        -3.3036   -1.4538    3.3845 C.ar      1 <0>        -0.0885
     22 C20        -3.2165   -0.1647    5.5246 C.3       1 <0>        -0.0435
     23 C21        -2.6223    1.1819    5.2010 C.ar      1 <0>        -0.0777
     24 C22        -1.4477    1.5833    5.8094 C.ar      1 <0>        -0.1141
     25 C23        -0.9027    2.8185    5.5126 C.ar      1 <0>        -0.1178
     26 C24        -1.5319    3.6521    4.6070 C.ar      1 <0>        -0.1225
     27 C25        -2.7059    3.2503    3.9978 C.ar      1 <0>        -0.1167
     28 C26        -3.2487    2.0133    4.2915 C.ar      1 <0>        -0.1127
     29 F1         -7.3404   -4.3661    3.5434 F         1 <0>        -0.1217
     30 F2         -8.5687   -4.8841    1.1598 F         1 <0>        -0.1220
     31 C27        -2.8071   -2.3882   -2.4998 C.3       1 <0>         0.1651
     32 N1         -1.9421   -3.5122   -2.8668 N.pl3     1 <0>        -0.3874
     33 C28        -1.9566   -4.1954   -4.0244 C.2       1 <0>         0.2515
     34 N2         -1.0330   -5.1200   -3.9617 N.2       1 <0>        -0.5423
     35 C29        -0.4110   -5.0584   -2.7850 C.2       1 <0>         0.1930
     36 N3         -0.9289   -4.0860   -2.0815 N.2       1 <0>        -0.2810
     37 H1          1.0039    1.9031    0.0027 H         1 <0>         0.0799
     38 H2         -0.5459    1.8868   -0.8726 H         1 <0>         0.0659
     39 H3         -0.5289    1.8773    0.9072 H         1 <0>         0.0676
     40 H4          0.5123   -0.3556   -0.8948 H         1 <0>         0.0659
     41 H5          0.5293   -0.3651    0.8851 H         1 <0>         0.0671
     42 H6         -5.2330   -3.4332   -2.1599 H         1 <0>         0.1458
     43 H7         -7.2024   -4.2863   -0.9497 H         1 <0>         0.1581
     44 H8         -4.9721   -3.3459    3.3749 H         1 <0>         0.1563
     45 H9         -1.2239   -3.8505    2.1795 H         1 <0>         0.1293
     46 H10        -0.0903   -3.3715    4.3088 H         1 <0>         0.1283
     47 H11        -1.0068   -1.6802    5.8427 H         1 <0>         0.1251
     48 H12        -4.2022   -0.9131    3.1267 H         1 <0>         0.1257
     49 H13        -4.3002   -0.1187    5.4178 H         1 <0>         0.0842
     50 H14        -2.9636   -0.4366    6.5494 H         1 <0>         0.0854
     51 H15        -0.9561    0.9321    6.5170 H         1 <0>         0.1200
     52 H16         0.0146    3.1325    5.9885 H         1 <0>         0.1214
     53 H17        -1.1064    4.6174    4.3756 H         1 <0>         0.1208
     54 H18        -3.1977    3.9016    3.2906 H         1 <0>         0.1215
     55 H19        -4.1640    1.6978    3.8128 H         1 <0>         0.1195
     56 H20        -3.5508   -2.2319   -3.2811 H         1 <0>         0.1228
     57 H21        -2.2039   -1.4874   -2.3868 H         1 <0>         0.0974
     58 H22        -2.6159   -4.0133   -4.8602 H         1 <0>         0.2180
     59 H23         0.3935   -5.7044   -2.4658 H         1 <0>         0.2146
@<TRIPOS>BOND
     1    1    2 1
     2    1   37 1
     3    1   38 1
     4    1   39 1
     5    2    3 1
     6    2   40 1
     7    2   41 1
     8    3    4 1
     9    4    5 2
    10    4    6 1
    11    6   15 ar
    12    6    7 ar
    13    7    8 ar
    14    7   31 1
    15    8    9 ar
    16    8   42 1
    17    9   14 ar
    18    9   10 ar
    19   10   11 ar
    20   10   43 1
    21   11   12 ar
    22   11   30 1
    23   12   13 ar
    24   12   29 1
    25   13   14 ar
    26   13   44 1
    27   14   15 ar
    28   15   16 1
    29   16   21 ar
    30   16   17 ar
    31   17   18 ar
    32   17   45 1
    33   18   19 ar
    34   18   46 1
    35   19   20 ar
    36   19   47 1
    37   20   21 ar
    38   20   22 1
    39   21   48 1
    40   22   23 1
    41   22   49 1
    42   22   50 1
    43   23   28 ar
    44   23   24 ar
    45   24   25 ar
    46   24   51 1
    47   25   26 ar
    48   25   52 1
    49   26   27 ar
    50   26   53 1
    51   27   28 ar
    52   27   54 1
    53   28   55 1
    54   31   32 1
    55   31   56 1
    56   31   57 1
    57   32   36 1
    58   32   33 1
    59   33   34 2
    60   33   58 1
    61   34   35 1
    62   35   36 2
    63   35   59 1
@<TRIPOS>MOLECULE
ZINC15783055
   43    43     0     0     0
SMALL
USER_CHARGES
3-[(1S)-1-diethoxyphosphorylbutyl]-1,3-thiazinane-2-thione
@<TRIPOS>ATOM
      1 C1         -0.5346    2.8255    3.4031 C.3       1 <0>        -0.1477
      2 C2          0.0344    1.8264    2.3937 C.3       1 <0>        -0.1415
      3 C3         -0.5818    2.0849    1.0174 C.3       1 <0>        -0.1106
      4 C4         -0.0127    1.0858    0.0080 C.3       1 <0>        -0.4864
      5 H1         -0.2503    0.0712    0.3277 H         1 <0>         0.1683
      6 N1         -0.6027    1.3334   -1.3099 N.pl3     1 <0>        -0.4854
      7 C5         -0.0358    2.4287   -2.0681 C.3       1 <0>         0.0508
      8 C6         -0.2970    2.3021   -3.5642 C.3       1 <0>        -0.1358
      9 C7         -1.8094    2.2142   -3.8052 C.3       1 <0>        -0.1541
     10 S1         -2.3739    0.5864   -3.2430 S.3       1 <0>         0.0261
     11 C8         -1.5895    0.5248   -1.6703 C.2       1 <0>         0.3028
     12 S2         -2.1344   -0.6402   -0.5403 S.2       1 <0>        -0.5360
     13 P1          1.7968    1.2842   -0.0893 P.3       1 <0>         2.3837
     14 O1          2.1282    2.7182   -0.2457 O.2       1 <0>        -1.0070
     15 O2          2.4718    0.7215    1.2597 O.3       1 <0>        -0.7398
     16 C9          3.8700    0.8294    1.5340 C.3       1 <0>         0.1004
     17 C10         4.1735    0.1960    2.8933 C.3       1 <0>        -0.1605
     18 O3          2.3596    0.4623   -1.3542 O.3       1 <0>        -0.7483
     19 C11         3.7286    0.5027   -1.7620 C.3       1 <0>         0.1001
     20 C12         3.9209   -0.3874   -2.9915 C.3       1 <0>        -0.1599
     21 H2         -1.6166    2.7069    3.4613 H         1 <0>         0.0562
     22 H3         -0.0956    2.6413    4.3837 H         1 <0>         0.0623
     23 H4         -0.2970    3.8401    3.0835 H         1 <0>         0.0591
     24 H5         -0.2032    0.8117    2.7134 H         1 <0>         0.0740
     25 H6          1.1164    1.9450    2.3355 H         1 <0>         0.0742
     26 H7         -0.3442    3.0996    0.6977 H         1 <0>         0.0848
     27 H8         -1.6637    1.9663    1.0756 H         1 <0>         0.0854
     28 H9         -0.4682    3.3641   -1.7129 H         1 <0>         0.1023
     29 H10         1.0408    2.4541   -1.8993 H         1 <0>         0.1183
     30 H11         0.1039    3.1751   -4.0792 H         1 <0>         0.1168
     31 H12         0.1862    1.4016   -3.9435 H         1 <0>         0.0931
     32 H13        -2.3182    2.9956   -3.2408 H         1 <0>         0.1053
     33 H14        -2.0203    2.3311   -4.8682 H         1 <0>         0.1306
     34 H15         4.4336    0.3116    0.7579 H         1 <0>         0.0595
     35 H16         4.1568    1.8809    1.5510 H         1 <0>         0.0794
     36 H17         3.6099    0.7138    3.6694 H         1 <0>         0.0720
     37 H18         3.8867   -0.8555    2.8763 H         1 <0>         0.0682
     38 H19         5.2400    0.2783    3.1025 H         1 <0>         0.0806
     39 H20         4.0040    1.5280   -2.0090 H         1 <0>         0.0785
     40 H21         4.3603    0.1423   -0.9502 H         1 <0>         0.0616
     41 H22         3.2892   -0.0270   -3.8034 H         1 <0>         0.0692
     42 H23         4.9651   -0.3566   -3.3026 H         1 <0>         0.0815
     43 H24         3.6454   -1.4127   -2.7445 H         1 <0>         0.0682
@<TRIPOS>BOND
     1    1    2 1
     2    1   21 1
     3    1   22 1
     4    1   23 1
     5    2    3 1
     6    2   24 1
     7    2   25 1
     8    3    4 1
     9    3   26 1
    10    3   27 1
    11    4    5 1
    12    4    6 1
    13    4   13 1
    14    6   11 1
    15    6    7 1
    16    7    8 1
    17    7   28 1
    18    7   29 1
    19    8    9 1
    20    8   30 1
    21    8   31 1
    22    9   10 1
    23    9   32 1
    24    9   33 1
    25   10   11 1
    26   11   12 2
    27   13   14 2
    28   13   15 1
    29   13   18 1
    30   15   16 1
    31   16   17 1
    32   16   34 1
    33   16   35 1
    34   17   36 1
    35   17   37 1
    36   17   38 1
    37   18   19 1
    38   19   20 1
    39   19   39 1
    40   19   40 1
    41   20   41 1
    42   20   42 1
    43   20   43 1
@<TRIPOS>MOLECULE
ZINC48432705
   54    55     0     0     0
SMALL
USER_CHARGES

@<TRIPOS>ATOM
      1 C1         -0.7768    1.8338    0.2238 C.3       1 <0>        -0.1520
      2 C2         -0.4012    0.3590    0.3814 C.3       1 <0>        -0.1382
      3 C3         -1.4753   -0.5134   -0.2713 C.3       1 <0>         0.0927
      4 N1         -1.1157   -1.9255   -0.1204 N.pl3     1 <0>        -0.4265
      5 C4         -0.3606   -2.6360   -1.0087 C.2       1 <0>         0.0196
      6 C5         -0.2234   -3.8962   -0.5643 C.2       1 <0>        -0.1734
      7 C6         -0.9568   -3.9694    0.7072 C.2       1 <0>        -0.2053
      8 C7         -1.4782   -2.7033    0.9163 C.2       1 <0>         0.0920
      9 C8         -2.3092   -2.2726    2.0974 C.3       1 <0>        -0.0970
     10 C9         -1.0971   -5.1020    1.5495 C.2       1 <0>         0.0836
     11 C10        -1.2920   -6.3527    0.9979 C.2       1 <0>        -0.1399
     12 C11        -1.4372   -7.4956    1.8484 C.1       1 <0>         0.2612
     13 N2         -1.5525   -8.4022    2.5231 N.1       1 <0>        -0.4142
     14 C12        -1.3503   -6.5110   -0.4618 C.2       1 <0>         0.5888
     15 O1         -2.4209   -6.4566   -1.0374 O.2       1 <0>        -0.5103
     16 N3         -0.2178   -6.7165   -1.1631 N.am      1 <0>        -0.6093
     17 C13         1.0811   -6.6690   -0.4873 C.3       1 <0>         0.0979
     18 C14         1.5056   -8.0864   -0.0979 C.3       1 <0>        -0.1720
     19 C15        -0.2858   -6.9875   -2.6013 C.3       1 <0>         0.1249
     20 C16        -0.2449   -5.6662   -3.3717 C.3       1 <0>        -0.1401
     21 H1          0.6453   -5.0941   -3.1103 H         1 <0>         0.0832
     22 C17        -0.3110   -5.9169   -4.9029 C.3       1 <0>        -0.1496
     23 C18        -0.9684   -4.6005   -5.3884 C.3       1 <0>         0.0512
     24 O2         -1.9159   -4.2550   -4.3656 O.3       1 <0>        -0.3871
     25 C19        -1.5237   -4.8404   -3.1145 C.3       1 <0>         0.0249
     26 C20         0.2258   -2.0924   -2.2861 C.3       1 <0>        -0.0905
     27 H2         -0.0116    2.4554    0.6887 H         1 <0>         0.0635
     28 H3         -0.8496    2.0790   -0.8358 H         1 <0>         0.0589
     29 H4         -1.7368    2.0178    0.7061 H         1 <0>         0.0589
     30 H5          0.5588    0.1751   -0.1009 H         1 <0>         0.0708
     31 H6         -0.3284    0.1139    1.4410 H         1 <0>         0.0703
     32 H7         -2.4354   -0.3294    0.2110 H         1 <0>         0.0931
     33 H8         -1.5482   -0.2682   -1.3309 H         1 <0>         0.0942
     34 H9          0.3181   -4.6968   -1.0461 H         1 <0>         0.1580
     35 H10        -3.3641   -2.4398    1.8799 H         1 <0>         0.0820
     36 H11        -2.0225   -2.8531    2.9743 H         1 <0>         0.0864
     37 H12        -2.1419   -1.2133    2.2924 H         1 <0>         0.0713
     38 H13        -1.0515   -4.9860    2.6223 H         1 <0>         0.1393
     39 H14         1.8243   -6.2386   -1.1585 H         1 <0>         0.0825
     40 H15         1.0019   -6.0542    0.4092 H         1 <0>         0.0887
     41 H16         2.4720   -8.0510    0.4049 H         1 <0>         0.0703
     42 H17         0.7624   -8.5168    0.5733 H         1 <0>         0.0560
     43 H18         1.5848   -8.7012   -0.9945 H         1 <0>         0.0603
     44 H19         0.5624   -7.6057   -2.8950 H         1 <0>         0.0855
     45 H20        -1.2138   -7.5120   -2.8287 H         1 <0>         0.0887
     46 H21         0.6869   -6.0366   -5.3248 H         1 <0>         0.0834
     47 H22        -0.9386   -6.7778   -5.1333 H         1 <0>         0.0813
     48 H23        -0.2172   -3.8170   -5.4886 H         1 <0>         0.0562
     49 H24        -1.4785   -4.7603   -6.3383 H         1 <0>         0.0825
     50 H25        -2.3168   -5.4917   -2.7470 H         1 <0>         0.0974
     51 H26        -1.3180   -4.0580   -2.3841 H         1 <0>         0.0868
     52 H27         1.2190   -1.6896   -2.0874 H         1 <0>         0.0720
     53 H28         0.2991   -2.8933   -3.0219 H         1 <0>         0.0805
     54 H29        -0.4165   -1.3012   -2.6729 H         1 <0>         0.0665
@<TRIPOS>BOND
     1    1    2 1
     2    1   27 1
     3    1   28 1
     4    1   29 1
     5    2    3 1
     6    2   30 1
     7    2   31 1
     8    3    4 1
     9    3   32 1
    10    3   33 1
    11    4    8 1
    12    4    5 1
    13    5    6 2
    14    5   26 1
    15    6    7 1
    16    6   34 1
    17    7    8 2
    18    7   10 1
    19    8    9 1
    20    9   35 1
    21    9   36 1
    22    9   37 1
    23   10   11 2
    24   10   38 1
    25   11   12 1
    26   11   14 1
    27   12   13 3
    28   14   15 2
    29   14   16 am
    30   16   17 1
    31   16   19 1
    32   17   18 1
    33   17   39 1
    34   17   40 1
    35   18   41 1
    36   18   42 1
    37   18   43 1
    38   19   20 1
    39   19   44 1
    40   19   45 1
    41   20   21 1
    42   20   25 1
    43   20   22 1
    44   22   23 1
    45   22   46 1
    46   22   47 1
    47   23   24 1
    48   23   48 1
    49   23   49 1
    50   24   25 1
    51   25   50 1
    52   25   51 1
    53   26   52 1
    54   26   53 1
    55   26   54 1
@<TRIPOS>MOLECULE
ZINC58267362
   46    47     0     0     0
SMALL
USER_CHARGES

@<TRIPOS>ATOM
      1 C1          2.1993    1.6587    1.3932 C.3       1 <0>        -0.1467
      2 C2          1.6526    0.2498    1.1544 C.3       1 <0>        -0.0346
      3 C3          1.7421   -0.0818   -0.3129 C.2       1 <0>         0.0551
      4 N1          2.7269   -0.6545   -0.9590 N.2       1 <0>        -0.5077
      5 C4          2.6571   -0.8803   -2.2557 C.2       1 <0>         0.0342
      6 C5          1.5197   -0.4924   -2.8875 C.2       1 <0>        -0.1971
      7 S1          0.5979    0.1873   -1.5175 S.3       1 <0>         0.1016
      8 C6          3.7882   -1.5386   -3.0030 C.3       1 <0>         0.1947
      9 N2          4.7744   -0.5257   -3.3872 N.am      1 <0>        -0.6053
     10 C7          5.8831   -0.2036   -2.4853 C.3       1 <0>         0.0602
     11 C8          4.6619    0.1097   -4.5704 C.2       1 <0>         0.5207
     12 O1          3.6980   -0.0926   -5.2781 O.2       1 <0>        -0.5071
     13 C9          5.7337    1.0717   -5.0140 C.3       1 <0>         0.0695
     14 C10         5.6158    2.3708   -4.2145 C.3       1 <0>        -0.1845
     15 O2          5.5748    1.3530   -6.4060 O.3       1 <0>        -0.2825
     16 C11         6.6770    1.7751   -7.0800 C.ar      1 <0>         0.1196
     17 C12         7.8689    1.9853   -6.3984 C.ar      1 <0>        -0.1827
     18 C13         8.9945    2.4144   -7.0775 C.ar      1 <0>        -0.0899
     19 C14         8.9422    2.6375   -8.4377 C.ar      1 <0>        -0.1114
     20 C15         7.7473    2.4290   -9.1336 C.ar      1 <0>        -0.1312
     21 C16         6.6123    1.9897   -8.4455 C.ar      1 <0>        -0.0907
     22 C17         7.6862    2.6662  -10.5849 C.2       1 <0>         0.3943
     23 O3          6.6487    2.4846  -11.1857 O.2       1 <0>        -0.4508
     24 C18         8.9129    3.1348  -11.3241 C.3       1 <0>        -0.2013
     25 H1          3.2404    1.7034    1.0735 H         1 <0>         0.0605
     26 H2          1.6126    2.3778    0.8216 H         1 <0>         0.0579
     27 H3          2.1345    1.8986    2.4545 H         1 <0>         0.0710
     28 H4          2.2393   -0.4693    1.7259 H         1 <0>         0.0969
     29 H5          0.6115    0.2051    1.4741 H         1 <0>         0.0902
     30 H6          1.2467   -0.5753   -3.9291 H         1 <0>         0.1983
     31 H7          4.2621   -2.2828   -2.3628 H         1 <0>         0.0979
     32 H8          3.3986   -2.0242   -3.8977 H         1 <0>         0.1023
     33 H9          6.7209   -0.8711   -2.6866 H         1 <0>         0.0631
     34 H10         6.1941    0.8286   -2.6461 H         1 <0>         0.0785
     35 H11         5.5590   -0.3287   -1.4521 H         1 <0>         0.0851
     36 H12         6.7142    0.6274   -4.8427 H         1 <0>         0.0985
     37 H13         5.6054    2.1419   -3.1488 H         1 <0>         0.0854
     38 H14         6.4661    3.0145   -4.4396 H         1 <0>         0.0792
     39 H15         4.6917    2.8815   -4.4854 H         1 <0>         0.0791
     40 H16         7.9166    1.8132   -5.3333 H         1 <0>         0.1338
     41 H17         9.9178    2.5756   -6.5409 H         1 <0>         0.1347
     42 H18         9.8231    2.9732   -8.9646 H         1 <0>         0.1387
     43 H19         5.6873    1.8223   -8.9772 H         1 <0>         0.1436
     44 H20         9.7410    3.2410  -10.6233 H         1 <0>         0.0851
     45 H21         9.1764    2.4053  -12.0900 H         1 <0>         0.0969
     46 H22         8.7087    4.0970  -11.7938 H         1 <0>         0.0969
@<TRIPOS>BOND
     1    1    2 1
     2    1   25 1
     3    1   26 1
     4    1   27 1
     5    2    3 1
     6    2   28 1
     7    2   29 1
     8    3    7 1
     9    3    4 2
    10    4    5 1
    11    5    6 2
    12    5    8 1
    13    6    7 1
    14    6   30 1
    15    8    9 1
    16    8   31 1
    17    8   32 1
    18    9   10 1
    19    9   11 am
    20   10   33 1
    21   10   34 1
    22   10   35 1
    23   11   12 2
    24   11   13 1
    25   13   14 1
    26   13   15 1
    27   13   36 1
    28   14   37 1
    29   14   38 1
    30   14   39 1
    31   15   16 1
    32   16   21 ar
    33   16   17 ar
    34   17   18 ar
    35   17   40 1
    36   18   19 ar
    37   18   41 1
    38   19   20 ar
    39   19   42 1
    40   20   21 ar
    41   20   22 1
    42   21   43 1
    43   22   23 2
    44   22   24 1
    45   24   44 1
    46   24   45 1
    47   24   46 1
@<TRIPOS>MOLECULE
ZINC64828387
   50    50     0     0     0
SMALL
USER_CHARGES

@<TRIPOS>ATOM
      1 C1          1.4704    1.7397    0.5653 C.3       1 <0>        -0.1543
      2 C2          1.4888    0.2104    0.5222 C.3       1 <0>        -0.1238
      3 C3          2.0152   -0.3309    1.8529 C.3       1 <0>        -0.1145
      4 C4          2.0336   -1.8602    1.8099 C.3       1 <0>        -0.0331
      5 C5          2.5521   -2.3934    3.1206 C.2       1 <0>         0.0638
      6 N1          1.8743   -2.7082    4.1961 N.2       1 <0>        -0.5093
      7 C6          2.4753   -3.1668    5.2759 C.2       1 <0>         0.0813
      8 C7          3.8256   -3.2968    5.2202 C.2       1 <0>        -0.2232
      9 S1          4.1418   -2.7357    3.5548 S.3       1 <0>         0.1118
     10 C8          1.6992   -3.5297    6.5156 C.3       1 <0>        -0.3921
     11 S2          1.2094   -5.2744    6.4333 S.o       1 <0>         1.3126
     12 O1          2.3713   -6.0924    6.4183 O.2       1 <0>        -0.8105
     13 C9          0.2975   -5.5476    7.9774 C.3       1 <0>        -0.5005
     14 C10        -0.1724   -6.9782    8.0370 C.2       1 <0>         0.5452
     15 O2          0.0828   -7.7387    7.1273 O.2       1 <0>        -0.5257
     16 N2         -0.8762   -7.4126    9.1011 N.am      1 <0>        -0.5997
     17 C11        -1.1844   -6.4940   10.2000 C.3       1 <0>         0.1243
     18 C12        -2.7014   -6.3400   10.3256 C.3       1 <0>        -0.1646
     19 C13        -0.6187   -7.0539   11.5067 C.3       1 <0>        -0.1659
     20 C14        -1.3329   -8.8034    9.1590 C.3       1 <0>         0.1447
     21 C15        -2.2408   -9.0923    7.9619 C.3       1 <0>        -0.1701
     22 C16        -0.1234   -9.7395    9.1195 C.3       1 <0>        -0.1721
     23 H1          2.4813    2.1106    0.7340 H         1 <0>         0.0540
     24 H2          1.0954    2.1254   -0.3828 H         1 <0>         0.0562
     25 H3          0.8213    2.0726    1.3752 H         1 <0>         0.0545
     26 H4          0.4779   -0.1605    0.3535 H         1 <0>         0.0662
     27 H5          2.1379   -0.1225   -0.2877 H         1 <0>         0.0647
     28 H6          3.0262    0.0400    2.0217 H         1 <0>         0.0654
     29 H7          1.3661    0.0020    2.6628 H         1 <0>         0.0704
     30 H8          1.0227   -2.2312    1.6411 H         1 <0>         0.1011
     31 H9          2.6827   -2.1931    1.0000 H         1 <0>         0.0920
     32 H10         4.5165   -3.6463    5.9732 H         1 <0>         0.1935
     33 H11         2.3230   -3.3686    7.3949 H         1 <0>         0.1001
     34 H12         0.8085   -2.9050    6.5826 H         1 <0>         0.1355
     35 H13         0.9507   -5.3440    8.8260 H         1 <0>         0.1149
     36 H14        -0.5638   -4.8805    8.0136 H         1 <0>         0.1458
     37 H15        -0.7360   -5.5215    9.9971 H         1 <0>         0.0945
     38 H16        -3.1399   -7.2923   10.6237 H         1 <0>         0.0614
     39 H17        -2.9289   -5.5840   11.0772 H         1 <0>         0.0699
     40 H18        -3.1163   -6.0338    9.3652 H         1 <0>         0.0629
     41 H19         0.4417   -7.2718   11.3797 H         1 <0>         0.0594
     42 H20        -0.7461   -6.3195   12.3019 H         1 <0>         0.0703
     43 H21        -1.1488   -7.9694   11.7693 H         1 <0>         0.0623
     44 H22        -1.8877   -8.9654   10.0832 H         1 <0>         0.0862
     45 H23        -2.6518  -10.0978    8.0518 H         1 <0>         0.0638
     46 H24        -3.0548   -8.3677    7.9400 H         1 <0>         0.0552
     47 H25        -1.6626   -9.0171    7.0409 H         1 <0>         0.0797
     48 H26         0.5148   -9.5453    9.9815 H         1 <0>         0.0516
     49 H27        -0.4640  -10.7746    9.1454 H         1 <0>         0.0651
     50 H28         0.4409   -9.5656    8.2032 H         1 <0>         0.0792
@<TRIPOS>BOND
     1    1    2 1
     2    1   23 1
     3    1   24 1
     4    1   25 1
     5    2    3 1
     6    2   26 1
     7    2   27 1
     8    3    4 1
     9    3   28 1
    10    3   29 1
    11    4    5 1
    12    4   30 1
    13    4   31 1
    14    5    9 1
    15    5    6 2
    16    6    7 1
    17    7    8 2
    18    7   10 1
    19    8    9 1
    20    8   32 1
    21   10   11 1
    22   10   33 1
    23   10   34 1
    24   11   12 2
    25   11   13 1
    26   13   14 1
    27   13   35 1
    28   13   36 1
    29   14   15 2
    30   14   16 am
    31   16   17 1
    32   16   20 1
    33   17   18 1
    34   17   19 1
    35   17   37 1
    36   18   38 1
    37   18   39 1
    38   18   40 1
    39   19   41 1
    40   19   42 1
    41   19   43 1
    42   20   21 1
    43   20   22 1
    44   20   44 1
    45   21   45 1
    46   21   46 1
    47   21   47 1
    48   22   48 1
    49   22   49 1
    50   22   50 1
@<TRIPOS>MOLECULE
ZINC67210539
   42    43     0     0     0
SMALL
USER_CHARGES

@<TRIPOS>ATOM
      1 C1         -0.0187    1.5258    0.0104 C.3       1 <0>        -0.1476
      2 C2          0.0021   -0.0041    0.0020 C.3       1 <0>        -0.0376
      3 C3         -1.4117   -0.5257    0.0127 C.2       1 <0>         0.0650
      4 N1         -2.1828   -0.8072   -1.0077 N.2       1 <0>        -0.5185
      5 C4         -3.4089   -1.2600   -0.8367 C.2       1 <0>         0.0652
      6 C5         -3.8327   -1.4201    0.4431 C.2       1 <0>        -0.2309
      7 S1         -2.3801   -0.8947    1.3390 S.3       1 <0>         0.0974
      8 C6         -5.1594   -1.9102    0.9634 C.3       1 <0>         0.2105
      9 N2         -5.1120   -3.3652    1.1280 N.am      1 <0>        -0.6122
     10 C7         -4.6761   -3.9446    2.4010 C.3       1 <0>         0.0692
     11 C8         -5.4695   -4.1707    0.1082 C.2       1 <0>         0.5192
     12 O1         -5.8304   -3.6911   -0.9456 O.2       1 <0>        -0.5045
     13 C9         -5.4207   -5.6674    0.2775 C.3       1 <0>         0.0432
     14 O2         -5.8431   -6.2977   -0.9334 O.3       1 <0>        -0.2885
     15 C10        -5.8574   -7.6565   -0.9492 C.ar      1 <0>         0.1358
     16 C11        -5.4782   -8.3685    0.1795 C.ar      1 <0>        -0.2101
     17 C12        -5.4941   -9.7498    0.1611 C.ar      1 <0>        -0.0629
     18 C13        -5.8869  -10.4226   -0.9811 C.ar      1 <0>        -0.1324
     19 C14        -6.2648   -9.7153   -2.1075 C.ar      1 <0>        -0.0627
     20 C15        -6.2566   -8.3340   -2.0921 C.ar      1 <0>        -0.1446
     21 C16        -5.9027  -11.9294   -0.9986 C.3       1 <0>         0.0221
     22 C17        -7.2218  -12.4114   -0.5575 C.1       1 <0>         0.2046
     23 N3         -8.2398  -12.7834   -0.2171 N.1       1 <0>        -0.4301
     24 H1          1.0039    1.9031    0.0027 H         1 <0>         0.0720
     25 H2         -0.5459    1.8868   -0.8726 H         1 <0>         0.0627
     26 H3         -0.5289    1.8773    0.9072 H         1 <0>         0.0585
     27 H4          0.5123   -0.3556   -0.8948 H         1 <0>         0.0982
     28 H5          0.5293   -0.3651    0.8851 H         1 <0>         0.0907
     29 H6         -4.0472   -1.4927   -1.6762 H         1 <0>         0.1740
     30 H7         -5.3676   -1.4424    1.9256 H         1 <0>         0.0998
     31 H8         -5.9460   -1.6501    0.2551 H         1 <0>         0.1133
     32 H9         -5.5393   -4.0820    3.0522 H         1 <0>         0.0682
     33 H10        -4.2019   -4.9088    2.2179 H         1 <0>         0.0736
     34 H11        -3.9626   -3.2740    2.8800 H         1 <0>         0.0781
     35 H12        -4.4008   -5.9737    0.5100 H         1 <0>         0.0947
     36 H13        -6.0832   -5.9628    1.0911 H         1 <0>         0.0960
     37 H14        -5.1707   -7.8434    1.0717 H         1 <0>         0.1296
     38 H15        -5.1990  -10.3045    1.0395 H         1 <0>         0.1307
     39 H16        -6.5708  -10.2432   -2.9986 H         1 <0>         0.1358
     40 H17        -6.5560   -7.7819   -2.9708 H         1 <0>         0.1368
     41 H18        -5.7065  -12.2831   -2.0108 H         1 <0>         0.1195
     42 H19        -5.1337  -12.3087   -0.3257 H         1 <0>         0.1185
@<TRIPOS>BOND
     1    1    2 1
     2    1   24 1
     3    1   25 1
     4    1   26 1
     5    2    3 1
     6    2   27 1
     7    2   28 1
     8    3    7 1
     9    3    4 2
    10    4    5 1
    11    5    6 2
    12    5   29 1
    13    6    7 1
    14    6    8 1
    15    8    9 1
    16    8   30 1
    17    8   31 1
    18    9   10 1
    19    9   11 am
    20   10   32 1
    21   10   33 1
    22   10   34 1
    23   11   12 2
    24   11   13 1
    25   13   14 1
    26   13   35 1
    27   13   36 1
    28   14   15 1
    29   15   20 ar
    30   15   16 ar
    31   16   17 ar
    32   16   37 1
    33   17   18 ar
    34   17   38 1
    35   18   19 ar
    36   18   21 1
    37   19   20 ar
    38   19   39 1
    39   20   40 1
    40   21   22 1
    41   21   41 1
    42   21   42 1
    43   22   23 3
@<TRIPOS>MOLECULE
ZINC07843450
   45    47     0     0     0
SMALL
USER_CHARGES
2-[[4-cyclopropyl-5-(2-thienylmethyl)-1,2,4-triazol-3-yl]sulfanyl]-N-tert-butyl-acetamide
@<TRIPOS>ATOM
      1 C1         -0.0036    8.6924    3.9103 C.3       1 <0>        -0.1657
      2 C2          0.6628    9.0794    2.5886 C.3       1 <0>         0.1689
      3 C3          1.6108   10.2576    2.8211 C.3       1 <0>        -0.1569
      4 C4         -0.4103    9.4807    1.5746 C.3       1 <0>        -0.1657
      5 N1          1.4208    7.9375    2.0712 N.am      1 <0>        -0.7164
      6 C5          0.7889    6.7805    1.7907 C.2       1 <0>         0.5379
      7 O1         -0.4072    6.6848    1.9667 O.2       1 <0>        -0.5213
      8 C6          1.5686    5.6059    1.2585 C.3       1 <0>        -0.1689
      9 S1          0.4471    4.2121    0.9834 S.3       1 <0>         0.0949
     10 C7          1.5900    3.0143    0.3801 C.2       1 <0>         0.1394
     11 N2          2.8815    3.1817    0.2144 N.2       1 <0>        -0.2892
     12 N3          3.4058    2.1031   -0.2478 N.2       1 <0>        -0.2721
     13 C8          2.4893    1.1892   -0.3986 C.2       1 <0>         0.1939
     14 N4          1.3003    1.7356   -0.0010 N.pl3     1 <0>        -0.4264
     15 C9         -0.0127    1.0858    0.0080 C.3       1 <0>         0.0437
     16 C10        -1.1163    1.7347    0.8458 C.3       1 <0>        -0.1718
     17 C11        -1.1669    1.8157   -0.6820 C.3       1 <0>        -0.1662
     18 C12         2.7005   -0.2107   -0.9150 C.3       1 <0>         0.0565
     19 C13         2.5360   -0.2237   -2.4129 C.2       1 <0>        -0.1534
     20 C14         3.4708   -0.0338   -3.3760 C.2       1 <0>        -0.1344
     21 C15         3.0875   -0.0914   -4.7028 C.2       1 <0>        -0.1577
     22 C16         1.7883   -0.3361   -5.0017 C.2       1 <0>        -0.1653
     23 S2          1.0610   -0.5012   -3.3796 S.3       1 <0>         0.0355
     24 H1          0.7610    8.4065    4.6327 H         1 <0>         0.0551
     25 H2         -0.5675    9.5420    4.2953 H         1 <0>         0.0655
     26 H3         -0.6789    7.8530    3.7447 H         1 <0>         0.0787
     27 H4          2.0856   10.5332    1.8795 H         1 <0>         0.0634
     28 H5          1.0469   11.1072    3.2061 H         1 <0>         0.0762
     29 H6          2.3754    9.9716    3.5435 H         1 <0>         0.0634
     30 H7         -1.0857    8.6414    1.4090 H         1 <0>         0.0786
     31 H8         -0.9743   10.3303    1.9596 H         1 <0>         0.0655
     32 H9          0.0644    9.7564    0.6330 H         1 <0>         0.0550
     33 H10         2.3775    8.0140    1.9304 H         1 <0>         0.4033
     34 H11         2.3332    5.3199    1.9808 H         1 <0>         0.1250
     35 H12         2.0434    5.8816    0.3168 H         1 <0>         0.1242
     36 H13         0.0010   -0.0025   -0.0501 H         1 <0>         0.1507
     37 H14        -1.8287    1.0733    1.3388 H         1 <0>         0.1235
     38 H15        -0.8656    2.6453    1.3899 H         1 <0>         0.1173
     39 H16        -0.9494    2.7795   -1.1423 H         1 <0>         0.1093
     40 H17        -1.9123    1.2075   -1.1943 H         1 <0>         0.1192
     41 H18         3.7052   -0.5454   -0.6569 H         1 <0>         0.1256
     42 H19         1.9675   -0.8791   -0.4632 H         1 <0>         0.0998
     43 H20         4.4996    0.1601   -3.1106 H         1 <0>         0.1377
     44 H21         3.8125    0.0561   -5.4896 H         1 <0>         0.1365
     45 H22         1.3163   -0.4149   -5.9699 H         1 <0>         0.1871
@<TRIPOS>BOND
     1    1    2 1
     2    1   24 1
     3    1   25 1
     4    1   26 1
     5    2    3 1
     6    2    4 1
     7    2    5 1
     8    3   27 1
     9    3   28 1
    10    3   29 1
    11    4   30 1
    12    4   31 1
    13    4   32 1
    14    5    6 am
    15    5   33 1
    16    6    7 2
    17    6    8 1
    18    8    9 1
    19    8   34 1
    20    8   35 1
    21    9   10 1
    22   10   14 1
    23   10   11 2
    24   11   12 1
    25   12   13 2
    26   13   14 1
    27   13   18 1
    28   14   15 1
    29   15   17 1
    30   15   16 1
    31   15   36 1
    32   16   17 1
    33   16   37 1
    34   16   38 1
    35   17   39 1
    36   17   40 1
    37   18   19 1
    38   18   41 1
    39   18   42 1
    40   19   23 1
    41   19   20 2
    42   20   21 1
    43   20   43 1
    44   21   22 2
    45   21   44 1
    46   22   23 1
    47   22   45 1
@<TRIPOS>MOLECULE
ZINC22654506
   49    51     0     0     0
SMALL
USER_CHARGES
N-ethyl-N-(2-methoxyethyl)-4-(5-phenyl-2H-pyrazol-3-yl)benzamide
@<TRIPOS>ATOM
      1 C1          1.9603    2.5644   -0.4470 C.3       1 <0>        -0.1851
      2 C2          1.0693    2.3356    0.7756 C.3       1 <0>         0.0647
      3 N1         -0.0911    1.5286    0.3900 N.am      1 <0>        -0.6045
      4 C3          0.0655    0.0938    0.1385 C.3       1 <0>         0.1154
      5 C4         -0.1518   -0.6790    1.4410 C.3       1 <0>         0.0409
      6 O1         -1.5046   -0.5161    1.8715 O.3       1 <0>        -0.3709
      7 C5         -1.8145   -1.2018    3.0863 C.3       1 <0>         0.0282
      8 C6         -1.3015    2.1071    0.2613 C.2       1 <0>         0.5592
      9 O2         -2.2743    1.4286   -0.0058 O.2       1 <0>        -0.5111
     10 C7         -1.4462    3.5651    0.4447 C.ar      1 <0>        -0.1233
     11 C8         -0.3451    4.4056    0.2592 C.ar      1 <0>        -0.1177
     12 C9         -0.4811    5.7600    0.4244 C.ar      1 <0>        -0.1011
     13 C10        -1.7172    6.2986    0.7896 C.ar      1 <0>        -0.0054
     14 C11        -2.8167    5.4583    0.9803 C.ar      1 <0>        -0.1189
     15 C12        -2.6829    4.1044    0.8096 C.ar      1 <0>        -0.0529
     16 C13        -1.8619    7.7581    0.9737 C.2       1 <0>         0.1100
     17 C14        -0.8780    8.6922    0.8215 C.2       1 <0>        -0.2342
     18 C15        -1.4378    9.9521    1.0890 C.2       1 <0>         0.1093
     19 N2         -2.7088    9.7851    1.3906 N.2       1 <0>        -0.2562
     20 N3         -3.0046    8.4179    1.3210 N.pl3     1 <0>        -0.4749
     21 H1         -3.9348    7.8555    1.4897 H         1 <0>         0.4695
     22 C16        -0.7195   11.2502    1.0405 C.ar      1 <0>        -0.0177
     23 C17         0.6338   11.2885    0.7117 C.ar      1 <0>        -0.0955
     24 C18         1.2953   12.4988    0.6620 C.ar      1 <0>        -0.1206
     25 C19         0.6202   13.6712    0.9500 C.ar      1 <0>        -0.1116
     26 C20        -0.7220   13.6384    1.2826 C.ar      1 <0>        -0.1212
     27 C21        -1.3948   12.4341    1.3292 C.ar      1 <0>        -0.0925
     28 H2          2.8315    3.1703   -0.1575 H         1 <0>         0.0759
     29 H3          1.3882    3.0926   -1.2240 H         1 <0>         0.0672
     30 H4          2.3017    1.5948   -0.8385 H         1 <0>         0.0672
     31 H5          1.6414    1.8074    1.5526 H         1 <0>         0.0760
     32 H6          0.7279    3.3052    1.1671 H         1 <0>         0.1148
     33 H7         -0.6744   -0.2305   -0.6081 H         1 <0>         0.0954
     34 H8          1.0792   -0.1036   -0.2402 H         1 <0>         0.0952
     35 H9          0.0534   -1.7465    1.2726 H         1 <0>         0.0589
     36 H10         0.5282   -0.2925    2.2145 H         1 <0>         0.0488
     37 H11        -2.8686   -1.0268    3.3475 H         1 <0>         0.0862
     38 H12        -1.1693   -0.8262    3.8942 H         1 <0>         0.0377
     39 H13        -1.6441   -2.2802    2.9523 H         1 <0>         0.0404
     40 H14         0.6117    3.9888   -0.0188 H         1 <0>         0.1678
     41 H15         0.3687    6.4100    0.2767 H         1 <0>         0.1369
     42 H16        -3.7722    5.8750    1.2626 H         1 <0>         0.1260
     43 H17        -3.5331    3.4548    0.9567 H         1 <0>         0.1397
     44 H18         0.1476    8.4971    0.5448 H         1 <0>         0.1513
     45 H19         1.1630   10.3732    0.4914 H         1 <0>         0.1269
     46 H20         2.3432   12.5301    0.4022 H         1 <0>         0.1271
     47 H21         1.1428   14.6156    0.9147 H         1 <0>         0.1244
     48 H22        -1.2445   14.5567    1.5066 H         1 <0>         0.1260
     49 H23        -2.4428   12.4096    1.5887 H         1 <0>         0.1286
@<TRIPOS>BOND
     1    1    2 1
     2    1   28 1
     3    1   29 1
     4    1   30 1
     5    2    3 1
     6    2   31 1
     7    2   32 1
     8    3    4 1
     9    3    8 am
    10    4    5 1
    11    4   33 1
    12    4   34 1
    13    5    6 1
    14    5   35 1
    15    5   36 1
    16    6    7 1
    17    7   37 1
    18    7   38 1
    19    7   39 1
    20    8    9 2
    21    8   10 1
    22   10   15 ar
    23   10   11 ar
    24   11   12 ar
    25   11   40 1
    26   12   13 ar
    27   12   41 1
    28   13   14 ar
    29   13   16 1
    30   14   15 ar
    31   14   42 1
    32   15   43 1
    33   16   20 1
    34   16   17 2
    35   17   18 1
    36   17   44 1
    37   18   19 2
    38   18   22 1
    39   19   20 1
    40   20   21 1
    41   22   27 ar
    42   22   23 ar
    43   23   24 ar
    44   23   45 1
    45   24   25 ar
    46   24   46 1
    47   25   26 ar
    48   25   47 1
    49   26   27 ar
    50   26   48 1
    51   27   49 1
@<TRIPOS>MOLECULE
ZINC47381849
   49    50     0     0     0
SMALL
USER_CHARGES

@<TRIPOS>ATOM
      1 C1          3.6288   -2.1375    0.1336 C.3       1 <0>        -0.0744
      2 C2          2.6674   -3.2828    0.3201 C.2       1 <0>         0.2961
      3 N1          1.3824   -3.2454    0.1006 N.2       1 <0>        -0.5384
      4 C3          0.8359   -4.4368    0.3682 C.2       1 <0>         0.2694
      5 N2          1.7721   -5.2510    0.7634 N.2       1 <0>        -0.3233
      6 O1          2.9863   -4.5155    0.7342 O.3       1 <0>        -0.0997
      7 C4         -0.6252   -4.7805    0.2345 C.3       1 <0>        -0.0347
      8 S1         -0.9495   -5.4023   -1.4385 S.3       1 <0>        -0.1272
      9 C5         -2.7269   -5.7652   -1.4350 C.3       1 <0>        -0.1369
     10 C6         -3.1337   -6.2967   -2.7851 C.2       1 <0>         0.5307
     11 O2         -2.3062   -6.4187   -3.6634 O.2       1 <0>        -0.4861
     12 N3         -4.4172   -6.6366   -3.0167 N.am      1 <0>        -0.6719
     13 C7         -4.8089   -7.0641   -4.2902 C.ar      1 <0>         0.1380
     14 C8         -4.5183   -6.2882   -5.4047 C.ar      1 <0>        -0.0577
     15 C9         -4.9063   -6.7130   -6.6602 C.ar      1 <0>        -0.1090
     16 C10        -5.5835   -7.9096   -6.8083 C.ar      1 <0>        -0.1157
     17 C11        -5.8747   -8.6843   -5.7005 C.ar      1 <0>        -0.1095
     18 C12        -5.4840   -8.2680   -4.4429 C.ar      1 <0>        -0.0815
     19 C13        -5.7956   -9.1164   -3.2369 C.3       1 <0>        -0.0553
     20 C14        -7.3102   -9.2968   -3.1178 C.3       1 <0>        -0.1452
     21 C15        -5.1294  -10.4852   -3.3905 C.3       1 <0>        -0.1435
     22 C16        -3.7808   -4.9838   -5.2441 C.3       1 <0>        -0.0573
     23 C17        -2.5817   -4.9557   -6.1941 C.3       1 <0>        -0.1361
     24 C18        -4.7206   -3.8226   -5.5745 C.3       1 <0>        -0.1444
     25 H1          4.6369   -2.4640    0.3893 H         1 <0>         0.1003
     26 H2          3.6059   -1.8093   -0.9056 H         1 <0>         0.1118
     27 H3          3.3392   -1.3107    0.7822 H         1 <0>         0.1112
     28 H4         -0.8864   -5.5472    0.9640 H         1 <0>         0.1147
     29 H5         -1.2261   -3.8889    0.4135 H         1 <0>         0.1212
     30 H6         -2.9438   -6.5111   -0.6704 H         1 <0>         0.1174
     31 H7         -3.2835   -4.8529   -1.2208 H         1 <0>         0.1186
     32 H8         -5.0695   -6.5847   -2.3006 H         1 <0>         0.4094
     33 H9         -4.6809   -6.1099   -7.5273 H         1 <0>         0.1252
     34 H10        -5.8858   -8.2396   -7.7912 H         1 <0>         0.1243
     35 H11        -6.4041   -9.6181   -5.8194 H         1 <0>         0.1250
     36 H12        -5.4164   -8.6263   -2.3402 H         1 <0>         0.0730
     37 H13        -7.6894   -9.7869   -4.0146 H         1 <0>         0.0593
     38 H14        -7.5355   -9.9104   -2.2456 H         1 <0>         0.0594
     39 H15        -7.7848   -8.3216   -3.0084 H         1 <0>         0.0554
     40 H16        -4.0504  -10.3567   -3.4753 H         1 <0>         0.0557
     41 H17        -5.3548  -11.0988   -2.5182 H         1 <0>         0.0590
     42 H18        -5.5086  -10.9753   -4.2872 H         1 <0>         0.0587
     43 H19        -3.4321   -4.8878   -4.2159 H         1 <0>         0.0801
     44 H20        -2.9305   -5.0517   -7.2223 H         1 <0>         0.0498
     45 H21        -2.0483   -4.0122   -6.0780 H         1 <0>         0.0535
     46 H22        -1.9122   -5.7830   -5.9587 H         1 <0>         0.0656
     47 H23        -5.5748   -3.8427   -4.8978 H         1 <0>         0.0511
     48 H24        -4.1872   -2.8791   -5.4584 H         1 <0>         0.0580
     49 H25        -5.0693   -3.9187   -6.6028 H         1 <0>         0.0560
@<TRIPOS>BOND
     1    1    2 1
     2    1   25 1
     3    1   26 1
     4    1   27 1
     5    2    6 1
     6    2    3 2
     7    3    4 1
     8    4    5 2
     9    4    7 1
    10    5    6 1
    11    7    8 1
    12    7   28 1
    13    7   29 1
    14    8    9 1
    15    9   10 1
    16    9   30 1
    17    9   31 1
    18   10   11 2
    19   10   12 am
    20   12   13 1
    21   12   32 1
    22   13   18 ar
    23   13   14 ar
    24   14   15 ar
    25   14   22 1
    26   15   16 ar
    27   15   33 1
    28   16   17 ar
    29   16   34 1
    30   17   18 ar
    31   17   35 1
    32   18   19 1
    33   19   20 1
    34   19   21 1
    35   19   36 1
    36   20   37 1
    37   20   38 1
    38   20   39 1
    39   21   40 1
    40   21   41 1
    41   21   42 1
    42   22   23 1
    43   22   24 1
    44   22   43 1
    45   23   44 1
    46   23   45 1
    47   23   46 1
    48   24   47 1
    49   24   48 1
    50   24   49 1
@<TRIPOS>MOLECULE
ZINC63764222
   42    42     0     0     0
SMALL
USER_CHARGES

@<TRIPOS>ATOM
      1 C1         -1.6182   -3.5406   -6.4866 C.3       1 <0>        -0.1515
      2 C2         -1.5762   -2.7125   -5.2008 C.3       1 <0>        -0.1484
      3 C3         -2.5862   -3.2751   -4.1986 C.3       1 <0>         0.1058
      4 N1         -2.4680   -2.5537   -2.9290 N.pl3     1 <0>        -0.9937
      5 C4         -3.1551   -1.2725   -2.7478 C.3       1 <0>         0.0708
      6 C5         -4.5964   -1.5255   -2.3013 C.3       1 <0>         0.4336
      7 F1         -4.5934   -2.2283   -1.0916 F         1 <0>        -0.1785
      8 F2         -5.2525   -0.3020   -2.1282 F         1 <0>        -0.1757
      9 F3         -5.2614   -2.2774   -3.2758 F         1 <0>        -0.1779
     10 S1         -1.5579   -3.1865   -1.6988 S.o2      1 <0>         2.6878
     11 O1         -1.6788   -2.2911   -0.6021 O.2       1 <0>        -0.9400
     12 O2         -1.9053   -4.5609   -1.6020 O.2       1 <0>        -0.9442
     13 C6          0.1263   -3.1279   -2.2134 C.ar      1 <0>        -0.6605
     14 C7          0.8152   -4.3006   -2.4547 C.ar      1 <0>        -0.0420
     15 C8          2.1423   -4.2536   -2.8602 C.ar      1 <0>         0.1203
     16 C9          2.7729   -3.0266   -3.0218 C.ar      1 <0>        -0.0558
     17 C10         2.0787   -1.8579   -2.7789 C.ar      1 <0>        -0.1208
     18 C11         0.7552   -1.9080   -2.3806 C.ar      1 <0>         0.0092
     19 C12        -0.0012   -0.6304   -2.1224 C.3       1 <0>        -0.1476
     20 N2          2.8431   -5.4397   -3.1051 N.am      1 <0>        -0.6756
     21 C13         3.7408   -5.4971   -4.1088 C.2       1 <0>         0.5129
     22 O3          4.0051   -4.4982   -4.7439 O.2       1 <0>        -0.5271
     23 C14         4.4161   -6.8025   -4.4419 C.3       1 <0>        -0.1707
     24 H1         -0.8987   -3.1398   -7.2006 H         1 <0>         0.0605
     25 H2         -1.3665   -4.5766   -6.2599 H         1 <0>         0.0569
     26 H3         -2.6193   -3.4953   -6.9154 H         1 <0>         0.0598
     27 H4         -0.5751   -2.7577   -4.7720 H         1 <0>         0.0689
     28 H5         -1.8279   -1.6764   -5.4275 H         1 <0>         0.0715
     29 H6         -3.5952   -3.1539   -4.5928 H         1 <0>         0.0971
     30 H7         -2.3847   -4.3337   -4.0351 H         1 <0>         0.0954
     31 H8         -2.6370   -0.6867   -1.9885 H         1 <0>         0.1427
     32 H9         -3.1574   -0.7250   -3.6902 H         1 <0>         0.1342
     33 H10         0.3221   -5.2531   -2.3278 H         1 <0>         0.1470
     34 H11         3.8052   -2.9867   -3.3368 H         1 <0>         0.1471
     35 H12         2.5686   -0.9036   -2.9041 H         1 <0>         0.1389
     36 H13         0.1310   -0.3340   -1.0818 H         1 <0>         0.1005
     37 H14         0.3792    0.1553   -2.7751 H         1 <0>         0.0874
     38 H15        -1.0607   -0.7886   -2.3233 H         1 <0>         0.0624
     39 H16         2.6828   -6.2206   -2.5525 H         1 <0>         0.4155
     40 H17         4.0545   -7.5806   -3.7696 H         1 <0>         0.0807
     41 H18         4.1880   -7.0772   -5.4717 H         1 <0>         0.1019
     42 H19         5.4944   -6.6938   -4.3251 H         1 <0>         0.1012
@<TRIPOS>BOND
     1    1    2 1
     2    1   24 1
     3    1   25 1
     4    1   26 1
     5    2    3 1
     6    2   27 1
     7    2   28 1
     8    3    4 1
     9    3   29 1
    10    3   30 1
    11    4    5 1
    12    4   10 1
    13    5    6 1
    14    5   31 1
    15    5   32 1
    16    6    7 1
    17    6    8 1
    18    6    9 1
    19   10   11 2
    20   10   12 2
    21   10   13 1
    22   13   18 ar
    23   13   14 ar
    24   14   15 ar
    25   14   33 1
    26   15   16 ar
    27   15   20 1
    28   16   17 ar
    29   16   34 1
    30   17   18 ar
    31   17   35 1
    32   18   19 1
    33   19   36 1
    34   19   37 1
    35   19   38 1
    36   20   21 am
    37   20   39 1
    38   21   22 2
    39   21   23 1
    40   23   40 1
    41   23   41 1
    42   23   42 1
@<TRIPOS>MOLECULE
ZINC66432092
   42    43     0     0     0
SMALL
USER_CHARGES

@<TRIPOS>ATOM
      1 C1         -0.0149    1.4065   -0.0160 C.3       1 <0>         0.0302
      2 O1         -0.0007   -0.0224   -0.0155 O.3       1 <0>        -0.3850
      3 C2         -1.3002   -0.6166    0.0028 C.3       1 <0>         0.0615
      4 C3         -1.1643   -2.1405    0.0016 C.3       1 <0>         0.0614
      5 O2         -0.5379   -2.5638    1.2143 O.3       1 <0>        -0.3070
      6 C4         -0.3409   -3.9002    1.3737 C.ar      1 <0>         0.0934
      7 C5         -0.7365   -4.7830    0.3823 C.ar      1 <0>        -0.1604
      8 C6         -0.5361   -6.1413    0.5447 C.ar      1 <0>        -0.1303
      9 C7          0.0598   -6.6236    1.6979 C.ar      1 <0>         0.0866
     10 C8          0.4576   -5.7476    2.6925 C.ar      1 <0>        -0.1328
     11 C9          0.2644   -4.3830    2.5319 C.ar      1 <0>         0.1525
     12 N1          0.6715   -3.4940    3.5338 N.am      1 <0>        -0.6533
     13 C10         1.6565   -3.8430    4.3849 C.2       1 <0>         0.5461
     14 O3          2.2605   -4.8869    4.2214 O.2       1 <0>        -0.5180
     15 C11         2.0002   -2.9660    5.5065 C.2       1 <0>        -0.1958
     16 C12         2.9861   -3.3153    6.3583 C.2       1 <0>        -0.0234
     17 C13         3.3311   -2.4349    7.4842 C.ar      1 <0>        -0.0302
     18 C14         2.6375   -1.2386    7.6799 C.ar      1 <0>        -0.1006
     19 C15         2.9655   -0.4170    8.7385 C.ar      1 <0>        -0.0910
     20 C16         3.9812   -0.7688    9.6126 C.ar      1 <0>        -0.1063
     21 C17         4.6798   -1.9466    9.4373 C.ar      1 <0>        -0.0708
     22 C18         4.3612   -2.7952    8.3782 C.ar      1 <0>        -0.0032
     23 C19         5.0788   -4.0209    8.1953 C.1       1 <0>         0.2426
     24 N2          5.6480   -4.9932    8.0502 N.1       1 <0>        -0.3969
     25 F1          0.2527   -7.9518    1.8525 F         1 <0>        -0.1352
     26 H1          1.0090    1.7800   -0.0304 H         1 <0>         0.0885
     27 H2         -0.5446    1.7643   -0.8988 H         1 <0>         0.0427
     28 H3         -0.5199    1.7651    0.8810 H         1 <0>         0.0434
     29 H4         -1.8319   -0.2999    0.9001 H         1 <0>         0.0625
     30 H5         -1.8566   -0.3007   -0.8797 H         1 <0>         0.0741
     31 H6         -2.1529   -2.5934   -0.0740 H         1 <0>         0.0815
     32 H7         -0.5567   -2.4504   -0.8486 H         1 <0>         0.0749
     33 H8         -1.2021   -4.4100   -0.5180 H         1 <0>         0.1427
     34 H9         -0.8453   -6.8278   -0.2295 H         1 <0>         0.1408
     35 H10         0.9221   -6.1255    3.5913 H         1 <0>         0.1649
     36 H11         0.2446   -2.6268    3.6154 H         1 <0>         0.4199
     37 H12         1.4643   -2.0396    5.6515 H         1 <0>         0.1398
     38 H13         3.5220   -4.2417    6.2133 H         1 <0>         0.1373
     39 H14         1.8449   -0.9566    7.0026 H         1 <0>         0.1394
     40 H15         2.4269    0.5074    8.8866 H         1 <0>         0.1367
     41 H16         4.2285   -0.1166   10.4372 H         1 <0>         0.1384
     42 H17         5.4705   -2.2125   10.1232 H         1 <0>         0.1387
@<TRIPOS>BOND
     1    1    2 1
     2    1   26 1
     3    1   27 1
     4    1   28 1
     5    2    3 1
     6    3    4 1
     7    3   29 1
     8    3   30 1
     9    4    5 1
    10    4   31 1
    11    4   32 1
    12    5    6 1
    13    6   11 ar
    14    6    7 ar
    15    7    8 ar
    16    7   33 1
    17    8    9 ar
    18    8   34 1
    19    9   10 ar
    20    9   25 1
    21   10   11 ar
    22   10   35 1
    23   11   12 1
    24   12   13 am
    25   12   36 1
    26   13   14 2
    27   13   15 1
    28   15   16 2
    29   15   37 1
    30   16   17 1
    31   16   38 1
    32   17   22 ar
    33   17   18 ar
    34   18   19 ar
    35   18   39 1
    36   19   20 ar
    37   19   40 1
    38   20   21 ar
    39   20   41 1
    40   21   22 ar
    41   21   42 1
    42   22   23 1
    43   23   24 3
@<TRIPOS>MOLECULE
ZINC16660846
   37    38     0     0     0
SMALL
USER_CHARGES
2-chloroprop-2-enyl 4-[(1,1-dioxo-1,2-benzothiazol-3-yl)amino]butanoate
@<TRIPOS>ATOM
      1 C1        -13.0208    4.6207   -0.8844 C.2       1 <0>        -0.1404
      2 C2        -12.1987    4.6144    0.1376 C.2       1 <0>        -0.0862
      3 C3        -10.9837    3.7230    0.1218 C.3       1 <0>         0.1071
      4 O1         -9.7837    4.5405    0.1152 O.3       1 <0>        -0.3480
      5 C4         -8.6068    3.8952    0.1010 C.2       1 <0>         0.4654
      6 O2         -8.5802    2.6872    0.0943 O.2       1 <0>        -0.5066
      7 C5         -7.3187    4.6773    0.0934 C.3       1 <0>        -0.1103
      8 C6         -6.1342    3.7090    0.0775 C.3       1 <0>        -0.1265
      9 C7         -4.8264    4.5030    0.0698 C.3       1 <0>         0.1161
     10 N1         -3.6923    3.5758    0.0545 N.pl3     1 <0>        -0.6681
     11 C8         -2.4037    4.0637    0.0454 C.2       1 <0>         0.5106
     12 N2         -2.1868    5.3404    0.0498 N.2       1 <0>        -0.8831
     13 S1         -0.5231    5.5217    0.0351 S.o2      1 <0>         2.5827
     14 O3         -0.1368    6.0741    1.2860 O.2       1 <0>        -0.9416
     15 O4         -0.1602    6.0868   -1.2172 O.2       1 <0>        -0.9416
     16 C9         -0.0322    3.8191    0.0220 C.ar      1 <0>        -0.6164
     17 C10        -1.2589    3.1402    0.0300 C.ar      1 <0>        -0.1226
     18 C11        -1.2201    1.7377    0.0173 C.ar      1 <0>        -0.0529
     19 C12        -0.0126    1.0758    0.0080 C.ar      1 <0>        -0.0861
     20 C13         1.1818    1.7734    0.0003 C.ar      1 <0>        -0.0913
     21 C14         1.1626    3.1614    0.0075 C.ar      1 <0>         0.0052
     22 Cl1       -12.5103    5.6328    1.5085 Cl        1 <0>        -0.0694
     23 H1        -12.8270    3.9871   -1.7373 H         1 <0>         0.1278
     24 H2        -13.8915    5.2595   -0.8731 H         1 <0>         0.1238
     25 H3        -11.0028    3.0985   -0.7714 H         1 <0>         0.0940
     26 H4        -10.9866    3.0890    1.0084 H         1 <0>         0.0893
     27 H5         -7.2667    5.3003    0.9863 H         1 <0>         0.1156
     28 H6         -7.2829    5.3098   -0.7935 H         1 <0>         0.1152
     29 H7         -6.1862    3.0859   -0.8154 H         1 <0>         0.0838
     30 H8         -6.1700    3.0765    0.9645 H         1 <0>         0.0840
     31 H9         -4.7744    5.1260    0.9627 H         1 <0>         0.0886
     32 H10        -4.7906    5.1355   -0.8172 H         1 <0>         0.0885
     33 H11        -3.8484    2.6185    0.0508 H         1 <0>         0.4158
     34 H12        -2.1417    1.1746    0.0190 H         1 <0>         0.1393
     35 H13         0.0021   -0.0041    0.0020 H         1 <0>         0.1449
     36 H14         2.1221    1.2423   -0.0108 H         1 <0>         0.1476
     37 H15         2.0885    3.7173    0.0013 H         1 <0>         0.1456
@<TRIPOS>BOND
     1    1    2 2
     2    1   23 1
     3    1   24 1
     4    2    3 1
     5    2   22 1
     6    3    4 1
     7    3   25 1
     8    3   26 1
     9    4    5 1
    10    5    6 2
    11    5    7 1
    12    7    8 1
    13    7   27 1
    14    7   28 1
    15    8    9 1
    16    8   29 1
    17    8   30 1
    18    9   10 1
    19    9   31 1
    20    9   32 1
    21   10   11 1
    22   10   33 1
    23   11   17 1
    24   11   12 2
    25   12   13 1
    26   13   14 2
    27   13   15 2
    28   13   16 1
    29   16   21 ar
    30   16   17 ar
    31   17   18 ar
    32   18   19 ar
    33   18   34 1
    34   19   20 ar
    35   19   35 1
    36   20   21 ar
    37   20   36 1
    38   21   37 1
@<TRIPOS>MOLECULE
ZINC42265649
   38    38     0     0     0
SMALL
USER_CHARGES

@<TRIPOS>ATOM
      1 C1         -0.0178    1.4608    0.0101 C.3       1 <0>         0.0677
      2 N1          0.0021   -0.0041    0.0020 N.am      1 <0>        -0.6119
      3 C2          0.0241   -0.7433    1.2666 C.3       1 <0>         0.1264
      4 C3         -1.4105   -1.0203    1.7205 C.3       1 <0>        -0.1312
      5 C4         -1.3878   -1.7807    3.0214 C.2       1 <0>         0.4657
      6 O1         -0.3325   -2.0713    3.5330 O.2       1 <0>        -0.5042
      7 O2         -2.5400   -2.1352    3.6118 O.3       1 <0>        -0.3541
      8 C5         -2.4438   -2.8543    4.8429 C.3       1 <0>         0.0327
      9 C6          0.0001   -0.6716   -1.1688 C.2       1 <0>         0.5107
     10 O3          0.0165   -1.8843   -1.1755 O.2       1 <0>        -0.5312
     11 C7         -0.0226    0.0888   -2.4697 C.3       1 <0>         0.1038
     12 N2         -0.0203   -0.8571   -3.5884 N.am      1 <0>        -0.7169
     13 C8         -0.0386   -0.4011   -4.8565 C.2       1 <0>         0.5526
     14 O4         -0.0569    0.7951   -5.0721 O.2       1 <0>        -0.5044
     15 C9         -0.0363   -1.3553   -5.9850 C.ar      1 <0>        -0.1151
     16 C10        -0.0211   -2.7299   -5.7411 C.ar      1 <0>        -0.0790
     17 C11        -0.0195   -3.6150   -6.7986 C.ar      1 <0>        -0.1130
     18 C12        -0.0324   -3.1440   -8.1001 C.ar      1 <0>        -0.0857
     19 C13        -0.0471   -1.7840   -8.3500 C.ar      1 <0>        -0.1005
     20 C14        -0.0551   -0.8862   -7.3004 C.ar      1 <0>        -0.0427
     21 Br1        -0.0836    0.9732   -7.6435 Br        1 <0>        -0.0080
     22 H1          1.0048    1.8381    0.0023 H         1 <0>         0.0673
     23 H2         -0.5450    1.8219   -0.8730 H         1 <0>         0.0797
     24 H3         -0.5280    1.8123    0.9069 H         1 <0>         0.0797
     25 H4          0.5496   -1.6879    1.1262 H         1 <0>         0.0980
     26 H5          0.5371   -0.1514    2.0246 H         1 <0>         0.0933
     27 H6         -1.9359   -0.0757    1.8610 H         1 <0>         0.1096
     28 H7         -1.9235   -1.6122    0.9626 H         1 <0>         0.1113
     29 H8         -3.4446   -3.0782    5.2121 H         1 <0>         0.1039
     30 H9         -1.9004   -3.7848    4.6787 H         1 <0>         0.0622
     31 H10        -1.9128   -2.2483    5.5771 H         1 <0>         0.0621
     32 H11        -0.9215    0.7036   -2.5156 H         1 <0>         0.1043
     33 H12         0.8582    0.7278   -2.5324 H         1 <0>         0.1041
     34 H13        -0.0057   -1.8116   -3.4164 H         1 <0>         0.4100
     35 H14        -0.0102   -3.0993   -4.7263 H         1 <0>         0.1358
     36 H15        -0.0077   -4.6785   -6.6109 H         1 <0>         0.1377
     37 H16        -0.0308   -3.8419   -8.9243 H         1 <0>         0.1385
     38 H17        -0.0564   -1.4231   -9.3679 H         1 <0>         0.1410
@<TRIPOS>BOND
     1    1    2 1
     2    1   22 1
     3    1   23 1
     4    1   24 1
     5    2    3 1
     6    2    9 am
     7    3    4 1
     8    3   25 1
     9    3   26 1
    10    4    5 1
    11    4   27 1
    12    4   28 1
    13    5    6 2
    14    5    7 1
    15    7    8 1
    16    8   29 1
    17    8   30 1
    18    8   31 1
    19    9   10 2
    20    9   11 1
    21   11   12 1
    22   11   32 1
    23   11   33 1
    24   12   13 am
    25   12   34 1
    26   13   14 2
    27   13   15 1
    28   15   20 ar
    29   15   16 ar
    30   16   17 ar
    31   16   35 1
    32   17   18 ar
    33   17   36 1
    34   18   19 ar
    35   18   37 1
    36   19   20 ar
    37   19   38 1
    38   20   21 1
@<TRIPOS>MOLECULE
ZINC55963755
   50    52     0     0     0
SMALL
USER_CHARGES

@<TRIPOS>ATOM
      1 C1         -0.0187    1.5258    0.0104 C.3       1 <0>        -0.1462
      2 C2          0.0021   -0.0041    0.0020 C.3       1 <0>        -0.1289
      3 C3         -1.4333   -0.5336    0.0129 C.3       1 <0>         0.1936
      4 H1         -1.9701   -0.1109    0.8621 H         1 <0>         0.1007
      5 C4         -1.4136   -2.0361    0.1285 C.ar      1 <0>        -0.0899
      6 C5         -1.1666   -2.8110   -0.9895 C.ar      1 <0>        -0.1101
      7 C6         -1.1490   -4.1891   -0.8878 C.ar      1 <0>        -0.1079
      8 C7         -1.3788   -4.7985    0.3368 C.ar      1 <0>         0.0527
      9 C8         -1.6246   -4.0195    1.4611 C.ar      1 <0>         0.0564
     10 C9         -1.6368   -2.6367    1.3529 C.ar      1 <0>        -0.0994
     11 O1         -1.8449   -4.5967    2.6739 O.3       1 <0>        -0.3056
     12 C10        -2.1882   -5.9867    2.6723 C.3       1 <0>         0.0200
     13 C11        -1.2233   -6.7190    1.7300 C.3       1 <0>         0.0197
     14 O2         -1.3624   -6.1569    0.4206 O.3       1 <0>        -0.3065
     15 N1         -2.1054   -0.1483   -1.2305 N.am      1 <0>        -0.7212
     16 C12        -2.6898    1.0618   -1.3336 C.2       1 <0>         0.5323
     17 O3         -2.6594    1.8317   -0.3970 O.2       1 <0>        -0.5062
     18 C13        -3.3812    1.4581   -2.6126 C.3       1 <0>        -0.1363
     19 S1         -4.0620    3.1305   -2.4388 S.3       1 <0>        -0.1699
     20 C14        -4.8496    3.4524   -4.0409 C.3       1 <0>        -0.0296
     21 C15        -5.4634    4.8287   -4.0313 C.2       1 <0>        -0.2468
     22 C16        -6.7732    5.1457   -3.6287 C.2       1 <0>         0.1236
     23 N2         -6.9365    6.4317   -3.7599 N.2       1 <0>        -0.3181
     24 O4         -5.7261    6.9765   -4.2539 O.3       1 <0>        -0.0780
     25 C17        -4.8512    5.9699   -4.4014 C.2       1 <0>         0.1023
     26 C18        -3.4337    6.0940   -4.8976 C.3       1 <0>        -0.0950
     27 C19        -7.8075    4.1683   -3.1326 C.3       1 <0>        -0.0880
     28 H2          1.0039    1.9031    0.0027 H         1 <0>         0.0491
     29 H3         -0.5459    1.8868   -0.8726 H         1 <0>         0.0561
     30 H4         -0.5289    1.8773    0.9072 H         1 <0>         0.0616
     31 H5          0.5123   -0.3556   -0.8948 H         1 <0>         0.0661
     32 H6          0.5293   -0.3651    0.8851 H         1 <0>         0.0747
     33 H7         -0.9875   -2.3386   -1.9441 H         1 <0>         0.1307
     34 H8         -0.9564   -4.7922   -1.7628 H         1 <0>         0.1377
     35 H9         -1.8251   -2.0289    2.2256 H         1 <0>         0.1382
     36 H10        -2.0940   -6.3897    3.6806 H         1 <0>         0.1250
     37 H11        -3.2120   -6.1120    2.3199 H         1 <0>         0.0793
     38 H12        -0.1989   -6.5887    2.0790 H         1 <0>         0.0795
     39 H13        -1.4707   -7.7802    1.7027 H         1 <0>         0.1247
     40 H14        -2.1298   -0.7641   -1.9796 H         1 <0>         0.4005
     41 H15        -2.6643    1.4412   -3.4335 H         1 <0>         0.1104
     42 H16        -4.1891    0.7569   -2.8213 H         1 <0>         0.1107
     43 H17        -4.1018    3.3936   -4.8317 H         1 <0>         0.0924
     44 H18        -5.6267    2.7093   -4.2196 H         1 <0>         0.0935
     45 H19        -3.4175    5.9857   -5.9821 H         1 <0>         0.0967
     46 H20        -3.0373    7.0718   -4.6241 H         1 <0>         0.0913
     47 H21        -2.8209    5.3141   -4.4454 H         1 <0>         0.0998
     48 H22        -7.7270    4.0725   -2.0498 H         1 <0>         0.0950
     49 H23        -8.8026    4.5293   -3.3924 H         1 <0>         0.0834
     50 H24        -7.6410    3.1963   -3.5968 H         1 <0>         0.0858
@<TRIPOS>BOND
     1    1    2 1
     2    1   28 1
     3    1   29 1
     4    1   30 1
     5    2    3 1
     6    2   31 1
     7    2   32 1
     8    3    4 1
     9    3    5 1
    10    3   15 1
    11    5   10 ar
    12    5    6 ar
    13    6    7 ar
    14    6   33 1
    15    7    8 ar
    16    7   34 1
    17    8   14 1
    18    8    9 ar
    19    9   10 ar
    20    9   11 1
    21   10   35 1
    22   11   12 1
    23   12   13 1
    24   12   36 1
    25   12   37 1
    26   13   14 1
    27   13   38 1
    28   13   39 1
    29   15   16 am
    30   15   40 1
    31   16   17 2
    32   16   18 1
    33   18   19 1
    34   18   41 1
    35   18   42 1
    36   19   20 1
    37   20   21 1
    38   20   43 1
    39   20   44 1
    40   21   25 2
    41   21   22 1
    42   22   23 2
    43   22   27 1
    44   23   24 1
    45   24   25 1
    46   25   26 1
    47   26   45 1
    48   26   46 1
    49   26   47 1
    50   27   48 1
    51   27   49 1
    52   27   50 1
@<TRIPOS>MOLECULE
ZINC63421181
   42    43     0     0     0
SMALL
USER_CHARGES

@<TRIPOS>ATOM
      1 C1         -0.4426    1.3797   -2.2087 C.3       1 <0>        -0.1538
      2 C2         -0.4234   -0.1457   -2.0925 C.3       1 <0>         0.0524
      3 O1         -1.5121   -0.5747   -1.2722 O.3       1 <0>        -0.3068
      4 C3         -1.6399   -1.9130   -1.0660 C.ar      1 <0>         0.0920
      5 C4         -0.7322   -2.7921   -1.6373 C.ar      1 <0>        -0.1623
      6 C5         -0.8611   -4.1512   -1.4291 C.ar      1 <0>        -0.1040
      7 C6         -1.9002   -4.6389   -0.6466 C.ar      1 <0>         0.1321
      8 C7         -2.8096   -3.7590   -0.0737 C.ar      1 <0>        -0.1151
      9 C8         -2.6764   -2.3983   -0.2785 C.ar      1 <0>         0.0911
     10 F1         -3.5573   -1.5412    0.2824 F         1 <0>        -0.1257
     11 N1         -2.0310   -6.0154   -0.4363 N.am      1 <0>        -0.6408
     12 C9         -3.2560   -6.5691   -0.3404 C.2       1 <0>         0.5060
     13 O2         -4.2451   -5.8905   -0.5267 O.2       1 <0>        -0.4820
     14 C10        -3.3966   -8.0174   -0.0049 C.2       1 <0>         0.5145
     15 O3         -2.4099   -8.7187    0.0822 O.2       1 <0>        -0.4981
     16 N2         -4.6192   -8.5458    0.2013 N.am      1 <0>        -0.5794
     17 C11        -5.7997   -7.6783    0.2125 C.3       1 <0>         0.2170
     18 C12        -6.2741   -7.4774   -1.1664 C.1       1 <0>        -0.2007
     19 C13        -6.6524   -7.3172   -2.2661 C.1       1 <0>        -0.1752
     20 C14        -4.7676   -9.9877    0.4141 C.3       1 <0>         0.1947
     21 C15        -4.6650  -10.2913    1.8866 C.2       1 <0>        -0.0414
     22 C16        -5.6912  -10.3289    2.7555 C.2       1 <0>        -0.1893
     23 C17        -5.1459  -10.6492    4.0199 C.2       1 <0>        -0.2184
     24 C18        -3.8190  -10.7880    3.8482 C.2       1 <0>        -0.0295
     25 O4         -3.5342  -10.5758    2.5530 O.3       1 <0>        -0.1634
     26 H1          0.3878    1.7069   -2.8344 H         1 <0>         0.0812
     27 H2         -1.3834    1.6980   -2.6579 H         1 <0>         0.0679
     28 H3         -0.3460    1.8210   -1.2167 H         1 <0>         0.0680
     29 H4         -0.5200   -0.5870   -3.0845 H         1 <0>         0.0653
     30 H5          0.5174   -0.4640   -1.6433 H         1 <0>         0.0655
     31 H6          0.0759   -2.4136   -2.2458 H         1 <0>         0.1454
     32 H7         -0.1542   -4.8351   -1.8751 H         1 <0>         0.1402
     33 H8         -3.6179   -4.1374    0.5345 H         1 <0>         0.1527
     34 H9         -1.2400   -6.5715   -0.3593 H         1 <0>         0.4255
     35 H10        -6.5878   -8.1449    0.8036 H         1 <0>         0.1036
     36 H11        -5.5386   -6.7151    0.6509 H         1 <0>         0.1229
     37 H12        -6.9908   -7.1738   -3.2497 H         1 <0>         0.2165
     38 H13        -5.7401  -10.3114    0.0433 H         1 <0>         0.1203
     39 H14        -3.9798  -10.5170   -0.1218 H         1 <0>         0.1071
     40 H15        -6.7320  -10.1485    2.5304 H         1 <0>         0.1498
     41 H16        -5.6901  -10.7605    4.9461 H         1 <0>         0.1503
     42 H17        -3.1044  -11.0326    4.6202 H         1 <0>         0.2038
@<TRIPOS>BOND
     1    1    2 1
     2    1   26 1
     3    1   27 1
     4    1   28 1
     5    2    3 1
     6    2   29 1
     7    2   30 1
     8    3    4 1
     9    4    9 ar
    10    4    5 ar
    11    5    6 ar
    12    5   31 1
    13    6    7 ar
    14    6   32 1
    15    7    8 ar
    16    7   11 1
    17    8    9 ar
    18    8   33 1
    19    9   10 1
    20   11   12 am
    21   11   34 1
    22   12   13 2
    23   12   14 1
    24   14   15 2
    25   14   16 am
    26   16   17 1
    27   16   20 1
    28   17   18 1
    29   17   35 1
    30   17   36 1
    31   18   19 3
    32   19   37 1
    33   20   21 1
    34   20   38 1
    35   20   39 1
    36   21   25 1
    37   21   22 2
    38   22   23 1
    39   22   40 1
    40   23   24 2
    41   23   41 1
    42   24   25 1
    43   24   42 1
@<TRIPOS>MOLECULE
ZINC66942886
   53    54     0     0     0
SMALL
USER_CHARGES

@<TRIPOS>ATOM
      1 C1          0.0245    1.0347    0.2012 C.3       1 <0>         0.0584
      2 N1         -0.1493   -0.3997   -0.0409 N.am      1 <0>        -0.5926
      3 C2         -0.1825   -1.3342    1.0869 C.3       1 <0>         0.0954
      4 C3         -1.6034   -1.4987    1.5612 C.2       1 <0>         0.4961
      5 O1         -2.5000   -0.8949    1.0114 O.2       1 <0>        -0.5227
      6 N2         -1.8778   -2.3169    2.5964 N.am      1 <0>        -0.7306
      7 C4         -3.2591   -2.4769    3.0576 C.3       1 <0>         0.1236
      8 C5         -3.2938   -3.4528    4.2354 C.3       1 <0>        -0.1310
      9 C6         -4.7364   -3.6199    4.7170 C.3       1 <0>         0.0636
     10 O2         -4.7688   -4.5314    5.8170 O.3       1 <0>        -0.3926
     11 C7         -6.0770   -4.7589    6.3450 C.3       1 <0>         0.0312
     12 C8         -0.2785   -0.8596   -1.3012 C.2       1 <0>         0.5361
     13 O3         -0.5187   -2.0321   -1.4972 O.2       1 <0>        -0.5249
     14 C9         -0.1245    0.0831   -2.4668 C.3       1 <0>        -0.0323
     15 C10        -0.1924   -0.7070   -3.7773 C.3       1 <0>        -0.1270
     16 C11         0.9794   -1.6907   -3.8324 C.3       1 <0>         0.0518
     17 O4          2.2089   -0.9719   -3.7146 O.3       1 <0>        -0.3792
     18 C12         2.3487   -0.2522   -2.4880 C.3       1 <0>         0.0602
     19 C13         1.2320    0.7893   -2.3789 C.3       1 <0>        -0.1635
     20 C14        -1.2292    1.1077   -2.4359 C.ar      1 <0>        -0.0480
     21 C15        -0.9234    2.4553   -2.4839 C.ar      1 <0>        -0.1319
     22 C16        -1.9356    3.3962   -2.4556 C.ar      1 <0>        -0.0865
     23 C17        -3.2547    2.9908   -2.3789 C.ar      1 <0>        -0.1519
     24 C18        -3.5621    1.6418   -2.3308 C.ar      1 <0>         0.1104
     25 C19        -2.5475    0.6999   -2.3653 C.ar      1 <0>        -0.1336
     26 F1         -4.8511    1.2444   -2.2554 F         1 <0>        -0.1360
     27 H1          1.0879    1.2703    0.2407 H         1 <0>         0.0649
     28 H2         -0.4430    1.5986   -0.6060 H         1 <0>         0.0930
     29 H3         -0.4424    1.3023    1.1491 H         1 <0>         0.0719
     30 H4          0.2088   -2.3008    0.7694 H         1 <0>         0.1148
     31 H5          0.4292   -0.9439    1.9002 H         1 <0>         0.1113
     32 H6         -1.1606   -2.7999    3.0362 H         1 <0>         0.4024
     33 H7         -3.6504   -1.5103    3.3750 H         1 <0>         0.0697
     34 H8         -3.8708   -2.8672    2.2442 H         1 <0>         0.0698
     35 H9         -2.9025   -4.4194    3.9180 H         1 <0>         0.0796
     36 H10        -2.6821   -3.0626    5.0488 H         1 <0>         0.0792
     37 H11        -5.1277   -2.6533    5.0344 H         1 <0>         0.0532
     38 H12        -5.3480   -4.0102    3.9036 H         1 <0>         0.0535
     39 H13        -6.0163   -5.4615    7.1761 H         1 <0>         0.0883
     40 H14        -6.4961   -3.8160    6.6961 H         1 <0>         0.0428
     41 H15        -6.7165   -5.1728    5.5654 H         1 <0>         0.0430
     42 H16        -1.1323   -1.2572   -3.8226 H         1 <0>         0.0845
     43 H17        -0.1307   -0.0194   -4.6208 H         1 <0>         0.0835
     44 H18         0.8948   -2.4031   -3.0118 H         1 <0>         0.0716
     45 H19         0.9606   -2.2256   -4.7819 H         1 <0>         0.0979
     46 H20         2.2820   -0.9458   -1.6498 H         1 <0>         0.0473
     47 H21         3.3164    0.2492   -2.4690 H         1 <0>         0.1010
     48 H22         1.3224    1.5071   -3.1942 H         1 <0>         0.0930
     49 H23         1.3108    1.3092   -1.4241 H         1 <0>         0.0945
     50 H24         0.1071    2.7730   -2.5431 H         1 <0>         0.1384
     51 H25        -1.6956    4.4485   -2.4931 H         1 <0>         0.1374
     52 H26        -4.0454    3.7261   -2.3561 H         1 <0>         0.1372
     53 H27        -2.7863   -0.3528   -2.3323 H         1 <0>         0.1336
@<TRIPOS>BOND
     1    1    2 1
     2    1   27 1
     3    1   28 1
     4    1   29 1
     5    2    3 1
     6    2   12 am
     7    3    4 1
     8    3   30 1
     9    3   31 1
    10    4    5 2
    11    4    6 am
    12    6    7 1
    13    6   32 1
    14    7    8 1
    15    7   33 1
    16    7   34 1
    17    8    9 1
    18    8   35 1
    19    8   36 1
    20    9   10 1
    21    9   37 1
    22    9   38 1
    23   10   11 1
    24   11   39 1
    25   11   40 1
    26   11   41 1
    27   12   13 2
    28   12   14 1
    29   14   19 1
    30   14   15 1
    31   14   20 1
    32   15   16 1
    33   15   42 1
    34   15   43 1
    35   16   17 1
    36   16   44 1
    37   16   45 1
    38   17   18 1
    39   18   19 1
    40   18   46 1
    41   18   47 1
    42   19   48 1
    43   19   49 1
    44   20   25 ar
    45   20   21 ar
    46   21   22 ar
    47   21   50 1
    48   22   23 ar
    49   22   51 1
    50   23   24 ar
    51   23   52 1
    52   24   25 ar
    53   24   26 1
    54   25   53 1
@<TRIPOS>MOLECULE
ZINC01669475
   45    46     0     0     0
SMALL
USER_CHARGES
[3-chloro-4-[1-(3-chloro-4-prop-2-enoyloxy-phenyl)-1-methyl-ethyl]-phenyl] prop-2-enoate
@<TRIPOS>ATOM
      1 C1          2.3482   -0.5281    0.0931 C.3       1 <0>        -0.1460
      2 C2          2.5184    0.9922    0.0703 C.3       1 <0>         0.0186
      3 C3          3.4245    1.3865   -1.0977 C.3       1 <0>        -0.1564
      4 C4          3.1409    1.4475    1.3650 C.ar      1 <0>        -0.0517
      5 C5          2.4671    2.3399    2.1785 C.ar      1 <0>        -0.0910
      6 C6          3.0329    2.7554    3.3682 C.ar      1 <0>        -0.1017
      7 C7          4.2835    2.2854    3.7419 C.ar      1 <0>         0.0928
      8 C8          4.9608    1.3937    2.9212 C.ar      1 <0>        -0.0389
      9 C9          4.3872    0.9767    1.7343 C.ar      1 <0>        -0.0887
     10 Cl1         6.5257    0.8025    3.3850 Cl        1 <0>        -0.0534
     11 O1          4.8450    2.6976    4.9091 O.3       1 <0>        -0.2844
     12 C10         5.7457    3.6979    4.8354 C.2       1 <0>         0.4906
     13 O2          5.9477    4.2568    3.7751 O.2       1 <0>        -0.4883
     14 C11         6.4833    4.1124    6.0367 C.2       1 <0>        -0.1923
     15 C12         7.3725    5.1000    5.9638 C.2       1 <0>        -0.0744
     16 C13         1.1708    1.6460   -0.0964 C.ar      1 <0>        -0.0601
     17 C14         0.0335    0.8666   -0.2006 C.ar      1 <0>        -0.0885
     18 C15        -1.2022    1.4630   -0.3587 C.ar      1 <0>        -0.1078
     19 C16        -1.3037    2.8464   -0.4019 C.ar      1 <0>         0.0951
     20 C17        -0.1620    3.6271   -0.2977 C.ar      1 <0>        -0.1080
     21 C18         1.0736    3.0254   -0.1453 C.ar      1 <0>        -0.0254
     22 Cl2         2.5035    4.0011   -0.0147 Cl        1 <0>        -0.0369
     23 O3         -2.5194    3.4352   -0.5518 O.3       1 <0>        -0.2869
     24 C19        -3.3183    3.4748    0.5334 C.2       1 <0>         0.4909
     25 O4         -2.9781    2.9183    1.5591 O.2       1 <0>        -0.4901
     26 C20        -4.6002    4.1906    0.4763 C.2       1 <0>        -0.1954
     27 C21        -5.3888    4.2296    1.5477 C.2       1 <0>        -0.0711
     28 H1          1.8979   -0.8574   -0.8433 H         1 <0>         0.0700
     29 H2          3.3229   -1.0010    0.2137 H         1 <0>         0.0687
     30 H3          1.7027   -0.8090    0.9253 H         1 <0>         0.0657
     31 H4          3.5457    2.4696   -1.1140 H         1 <0>         0.0770
     32 H5          4.3991    0.9136   -0.9772 H         1 <0>         0.0668
     33 H6          2.9742    1.0572   -2.0342 H         1 <0>         0.0656
     34 H7          1.4954    2.7091    1.8854 H         1 <0>         0.1374
     35 H8          2.5040    3.4492    4.0049 H         1 <0>         0.1395
     36 H9          4.9132    0.2830    1.0952 H         1 <0>         0.1424
     37 H10         6.3038    3.6158    6.9787 H         1 <0>         0.1437
     38 H11         7.5520    5.5966    5.0217 H         1 <0>         0.1176
     39 H12         7.9147    5.4047    6.8468 H         1 <0>         0.1302
     40 H13         0.1120   -0.2099   -0.1628 H         1 <0>         0.1488
     41 H14        -2.0895    0.8533   -0.4441 H         1 <0>         0.1373
     42 H15        -0.2380    4.7037   -0.3359 H         1 <0>         0.1450
     43 H16        -4.9025    4.6850   -0.4350 H         1 <0>         0.1445
     44 H17        -5.0866    3.7352    2.4591 H         1 <0>         0.1182
     45 H18        -6.3311    4.7558    1.5058 H         1 <0>         0.1309
@<TRIPOS>BOND
     1    1    2 1
     2    1   28 1
     3    1   29 1
     4    1   30 1
     5    2    3 1
     6    2    4 1
     7    2   16 1
     8    3   31 1
     9    3   32 1
    10    3   33 1
    11    4    9 ar
    12    4    5 ar
    13    5    6 ar
    14    5   34 1
    15    6    7 ar
    16    6   35 1
    17    7    8 ar
    18    7   11 1
    19    8    9 ar
    20    8   10 1
    21    9   36 1
    22   11   12 1
    23   12   13 2
    24   12   14 1
    25   14   15 2
    26   14   37 1
    27   15   38 1
    28   15   39 1
    29   16   21 ar
    30   16   17 ar
    31   17   18 ar
    32   17   40 1
    33   18   19 ar
    34   18   41 1
    35   19   20 ar
    36   19   23 1
    37   20   21 ar
    38   20   42 1
    39   21   22 1
    40   23   24 1
    41   24   25 2
    42   24   26 1
    43   26   27 2
    44   26   43 1
    45   27   44 1
    46   27   45 1
@<TRIPOS>MOLECULE
ZINC09267218
   44    45     0     0     0
SMALL
USER_CHARGES
isopropyl 4-[2-(2-bromo-4-methyl-phenoxy)acetyl]oxybenzoate
@<TRIPOS>ATOM
      1 C1         -7.4672   -1.7595   -3.6402 C.3       1 <0>        -0.1129
      2 C2         -6.1629   -1.0650   -3.3444 C.ar      1 <0>        -0.1120
      3 C3         -5.5566   -1.2306   -2.1127 C.ar      1 <0>        -0.0638
      4 C4         -4.3612   -0.5948   -1.8385 C.ar      1 <0>        -0.1988
      5 C5         -3.7683    0.2102   -2.8001 C.ar      1 <0>         0.1469
      6 C6         -4.3810    0.3789   -4.0340 C.ar      1 <0>        -0.1158
      7 C7         -5.5749   -0.2630   -4.3048 C.ar      1 <0>        -0.0531
      8 Br1        -3.5803    1.4811   -5.3455 Br        1 <0>        -0.0282
      9 O1         -2.5925    0.8371   -2.5324 O.3       1 <0>        -0.2822
     10 C8         -2.0224    0.6225   -1.2398 C.3       1 <0>         0.0713
     11 C9         -0.7313    1.3913   -1.1262 C.2       1 <0>         0.4605
     12 O2         -0.3394    2.0549   -2.0568 O.2       1 <0>        -0.4519
     13 O3         -0.0161    1.3388    0.0094 O.3       1 <0>        -0.2899
     14 C10         1.1858    1.9701    0.0106 C.ar      1 <0>         0.1168
     15 C11         2.3571    1.2302   -0.0999 C.ar      1 <0>        -0.1278
     16 C12         3.5782    1.8669   -0.1039 C.ar      1 <0>        -0.0460
     17 C13         3.6389    3.2583    0.0135 C.ar      1 <0>        -0.1212
     18 C14         2.4587    3.9981    0.1297 C.ar      1 <0>        -0.0378
     19 C15         1.2416    3.3538    0.1281 C.ar      1 <0>        -0.1272
     20 C16         4.9449    3.9443    0.0143 C.2       1 <0>         0.5104
     21 O4          4.9957    5.1539    0.1161 O.2       1 <0>        -0.5004
     22 O5          6.0814    3.2293   -0.0978 O.3       1 <0>        -0.3482
     23 C17         7.3300    3.9705   -0.0897 C.3       1 <0>         0.0817
     24 C18         8.4358    3.1002    0.5108 C.3       1 <0>        -0.1508
     25 C19         7.7045    4.3544   -1.5226 C.3       1 <0>        -0.1719
     26 H1         -8.2964   -1.1148   -3.3489 H         1 <0>         0.0736
     27 H2         -7.5309   -1.9738   -4.7070 H         1 <0>         0.0696
     28 H3         -7.5176   -2.6924   -3.0786 H         1 <0>         0.0699
     29 H4         -6.0183   -1.8574   -1.3641 H         1 <0>         0.1353
     30 H5         -3.8887   -0.7241   -0.8760 H         1 <0>         0.1393
     31 H6         -6.0508   -0.1347   -5.2657 H         1 <0>         0.1415
     32 H7         -1.8257   -0.4406   -1.1014 H         1 <0>         0.1146
     33 H8         -2.7183    0.9659   -0.4742 H         1 <0>         0.1143
     34 H9          2.3095    0.1548   -0.1868 H         1 <0>         0.1440
     35 H10         4.4878    1.2917   -0.1943 H         1 <0>         0.1505
     36 H11         2.5012    5.0734    0.2203 H         1 <0>         0.1487
     37 H12         0.3292    3.9246    0.2178 H         1 <0>         0.1412
     38 H13         7.2126    4.8735    0.5095 H         1 <0>         0.0873
     39 H14         8.5533    2.1973   -0.0883 H         1 <0>         0.0690
     40 H15         9.3731    3.6567    0.5169 H         1 <0>         0.0809
     41 H16         8.1690    2.8268    1.5316 H         1 <0>         0.0656
     42 H17         6.9167    4.9744   -1.9504 H         1 <0>         0.0621
     43 H18         8.6418    4.9108   -1.5165 H         1 <0>         0.0775
     44 H19         7.8220    3.4514   -2.1217 H         1 <0>         0.0677
@<TRIPOS>BOND
     1    1    2 1
     2    1   26 1
     3    1   27 1
     4    1   28 1
     5    2    7 ar
     6    2    3 ar
     7    3    4 ar
     8    3   29 1
     9    4    5 ar
    10    4   30 1
    11    5    6 ar
    12    5    9 1
    13    6    7 ar
    14    6    8 1
    15    7   31 1
    16    9   10 1
    17   10   11 1
    18   10   32 1
    19   10   33 1
    20   11   12 2
    21   11   13 1
    22   13   14 1
    23   14   19 ar
    24   14   15 ar
    25   15   16 ar
    26   15   34 1
    27   16   17 ar
    28   16   35 1
    29   17   18 ar
    30   17   20 1
    31   18   19 ar
    32   18   36 1
    33   19   37 1
    34   20   21 2
    35   20   22 1
    36   22   23 1
    37   23   24 1
    38   23   25 1
    39   23   38 1
    40   24   39 1
    41   24   40 1
    42   24   41 1
    43   25   42 1
    44   25   43 1
    45   25   44 1
@<TRIPOS>MOLECULE
ZINC32905789
   43    45     0     0     0
SMALL
USER_CHARGES
methyl 4-[[3-[3-(trifluoromethyl)phenyl]-1,2,4-oxadiazol-5-yl]methylsulfanylmethyl]benzoate
@<TRIPOS>ATOM
      1 C1         -5.5395   12.7366    8.8030 C.3       1 <0>         0.0326
      2 O1         -5.2784   12.1916    7.4827 O.3       1 <0>        -0.3545
      3 C2         -4.1548   12.6016    6.8630 C.2       1 <0>         0.5068
      4 O2         -3.4133   13.3927    7.4106 O.2       1 <0>        -0.5019
      5 C3         -3.8243   12.0890    5.5176 C.ar      1 <0>        -0.1187
      6 C4         -2.6604   12.5119    4.8724 C.ar      1 <0>        -0.0534
      7 C5         -2.3576   12.0289    3.6163 C.ar      1 <0>        -0.1092
      8 C6         -3.2042   11.1274    2.9956 C.ar      1 <0>        -0.0434
      9 C7         -4.3618   10.7083    3.6270 C.ar      1 <0>        -0.1111
     10 C8         -4.6741   11.1792    4.8854 C.ar      1 <0>        -0.0607
     11 C9         -2.8670   10.6046    1.6230 C.3       1 <0>        -0.0576
     12 S1         -1.8685    9.0980    1.7783 S.3       1 <0>        -0.1971
     13 C10        -1.5518    8.6026    0.0622 C.3       1 <0>        -0.0153
     14 C11        -0.7200    7.3461    0.0475 C.2       1 <0>         0.2004
     15 N1         -1.1692    6.1158    0.0393 N.2       1 <0>        -0.4529
     16 C12        -0.0703    5.3280    0.0304 C.2       1 <0>         0.2129
     17 N2          0.9713    6.1185    0.0247 N.2       1 <0>        -0.3631
     18 O3          0.6149    7.2777    0.0343 O.3       1 <0>         0.0992
     19 C13        -0.0501    3.8439    0.0223 C.ar      1 <0>        -0.0239
     20 C14        -1.2458    3.1284    0.0298 C.ar      1 <0>        -0.0421
     21 C15        -1.2213    1.7486    0.0173 C.ar      1 <0>        -0.1192
     22 C16        -0.0126    1.0758    0.0080 C.ar      1 <0>        -0.0515
     23 C17         1.1771    1.7810    0.0004 C.ar      1 <0>        -0.1843
     24 C18         1.1642    3.1614    0.0075 C.ar      1 <0>        -0.0336
     25 C19         2.4899    1.0412   -0.0161 C.3       1 <0>         0.5108
     26 F1          2.2486   -0.3368   -0.0212 F         1 <0>        -0.1739
     27 F2          3.2090    1.3930   -1.1634 F         1 <0>        -0.1737
     28 F3          3.2308    1.3807    1.1210 F         1 <0>        -0.1735
     29 H1         -6.4813   12.3216    9.1913 H         1 <0>         0.1067
     30 H2         -5.6205   13.8317    8.7382 H         1 <0>         0.0664
     31 H3         -4.7145   12.4694    9.4797 H         1 <0>         0.0664
     32 H4         -1.9986   13.2152    5.3559 H         1 <0>         0.1420
     33 H5         -1.4575   12.3548    3.1163 H         1 <0>         0.1383
     34 H6         -5.0203   10.0076    3.1352 H         1 <0>         0.1370
     35 H7         -5.5757   10.8477    5.3790 H         1 <0>         0.1427
     36 H8         -3.7955   10.3748    1.0799 H         1 <0>         0.1038
     37 H9         -2.2978   11.3664    1.0701 H         1 <0>         0.1039
     38 H10        -2.5083    8.4152   -0.4478 H         1 <0>         0.1337
     39 H11        -1.0105    9.4068   -0.4577 H         1 <0>         0.1272
     40 H12        -2.1900    3.6526    0.0413 H         1 <0>         0.1473
     41 H13        -2.1475    1.1930    0.0191 H         1 <0>         0.1472
     42 H14         0.0021   -0.0041    0.0020 H         1 <0>         0.1470
     43 H15         2.0938    3.7111    0.0019 H         1 <0>         0.1426
@<TRIPOS>BOND
     1    1    2 1
     2    1   29 1
     3    1   30 1
     4    1   31 1
     5    2    3 1
     6    3    4 2
     7    3    5 1
     8    5   10 ar
     9    5    6 ar
    10    6    7 ar
    11    6   32 1
    12    7    8 ar
    13    7   33 1
    14    8    9 ar
    15    8   11 1
    16    9   10 ar
    17    9   34 1
    18   10   35 1
    19   11   12 1
    20   11   36 1
    21   11   37 1
    22   12   13 1
    23   13   14 1
    24   13   38 1
    25   13   39 1
    26   14   18 1
    27   14   15 2
    28   15   16 1
    29   16   17 2
    30   16   19 1
    31   17   18 1
    32   19   24 ar
    33   19   20 ar
    34   20   21 ar
    35   20   40 1
    36   21   22 ar
    37   21   41 1
    38   22   23 ar
    39   22   42 1
    40   23   24 ar
    41   23   25 1
    42   24   43 1
    43   25   26 1
    44   25   27 1
    45   25   28 1
@<TRIPOS>MOLECULE
ZINC36106869
   57    59     0     0     0
SMALL
USER_CHARGES

@<TRIPOS>ATOM
      1 C1        -11.7753   -4.7851   -3.0378 C.3       1 <0>        -0.1134
      2 C2        -10.3953   -5.3395   -2.7944 C.ar      1 <0>        -0.1216
      3 C3         -9.9314   -6.3957   -3.5570 C.ar      1 <0>        -0.0755
      4 C4         -8.6671   -6.9059   -3.3356 C.ar      1 <0>        -0.2101
      5 C5         -7.8621   -6.3575   -2.3474 C.ar      1 <0>         0.1279
      6 C6         -8.3296   -5.2977   -1.5842 C.ar      1 <0>        -0.1453
      7 C7         -9.5931   -4.7876   -1.8131 C.ar      1 <0>        -0.0455
      8 C8        -10.0995   -3.6326   -0.9881 C.3       1 <0>        -0.1190
      9 O1         -6.6180   -6.8580   -2.1274 O.3       1 <0>        -0.3079
     10 C9         -6.2030   -7.9498   -2.9507 C.3       1 <0>         0.1541
     11 C10        -4.8075   -8.3678   -2.5648 C.2       1 <0>         0.0383
     12 N1         -4.4410   -9.2589   -1.6778 N.2       1 <0>        -0.4821
     13 C11        -3.1687   -9.5169   -1.4499 C.2       1 <0>         0.0467
     14 C12        -2.2594   -8.8173   -2.1758 C.2       1 <0>        -0.2144
     15 S1         -3.3420   -7.8079   -3.1745 S.3       1 <0>         0.1587
     16 C13        -2.7428  -10.5411   -0.4298 C.3       1 <0>         0.1476
     17 N2         -2.6672   -9.9125    0.8913 N.am      1 <0>        -0.5974
     18 C14        -3.8359   -9.2214    1.4416 C.3       1 <0>         0.1174
     19 C15        -4.6773  -10.2089    2.2526 C.3       1 <0>        -0.1065
     20 C16        -3.8744  -10.6887    3.4635 C.3       1 <0>        -0.1408
     21 C17        -5.9560   -9.5176    2.7300 C.3       1 <0>        -0.1434
     22 C18        -1.5225   -9.9699    1.6005 C.2       1 <0>         0.5610
     23 O2         -1.4204   -9.3499    2.6410 O.2       1 <0>        -0.5207
     24 C19        -0.3910  -10.7871    1.1128 C.ar      1 <0>        -0.1275
     25 C20        -0.0452  -10.7695   -0.2393 C.ar      1 <0>        -0.1111
     26 C21         1.0120  -11.5340   -0.6877 C.ar      1 <0>        -0.1216
     27 C22         1.7286  -12.3173    0.1995 C.ar      1 <0>        -0.0974
     28 C23         1.3907  -12.3397    1.5410 C.ar      1 <0>        -0.1189
     29 C24         0.3396  -11.5751    2.0035 C.ar      1 <0>        -0.0661
     30 H1        -11.7219   -3.9916   -3.7832 H         1 <0>         0.0690
     31 H2        -12.4277   -5.5799   -3.3994 H         1 <0>         0.0653
     32 H3        -12.1746   -4.3827   -2.1068 H         1 <0>         0.0684
     33 H4        -10.5584   -6.8223   -4.3260 H         1 <0>         0.1264
     34 H5         -8.3055   -7.7313   -3.9309 H         1 <0>         0.1276
     35 H6         -7.7050   -4.8691   -0.8145 H         1 <0>         0.1307
     36 H7        -10.6077   -4.0139   -0.1025 H         1 <0>         0.0748
     37 H8         -9.2599   -3.0074   -0.6843 H         1 <0>         0.0692
     38 H9        -10.7971   -3.0410   -1.5809 H         1 <0>         0.0726
     39 H10        -6.8849   -8.7888   -2.8124 H         1 <0>         0.0975
     40 H11        -6.2139   -7.6412   -3.9961 H         1 <0>         0.0912
     41 H12        -1.1804   -8.8616   -2.1570 H         1 <0>         0.1991
     42 H13        -3.4696  -11.3530   -0.4048 H         1 <0>         0.0870
     43 H14        -1.7641  -10.9378   -0.6999 H         1 <0>         0.1298
     44 H15        -3.5060   -8.4084    2.0883 H         1 <0>         0.0823
     45 H16        -4.4358   -8.8167    0.6265 H         1 <0>         0.0866
     46 H17        -4.9377  -11.0632    1.6277 H         1 <0>         0.0701
     47 H18        -3.6694   -9.8441    4.1213 H         1 <0>         0.0583
     48 H19        -4.4485  -11.4403    4.0054 H         1 <0>         0.0497
     49 H20        -2.9335  -11.1235    3.1264 H         1 <0>         0.0496
     50 H21        -6.5279   -9.1758    1.8673 H         1 <0>         0.0559
     51 H22        -6.5554  -10.2211    3.3077 H         1 <0>         0.0577
     52 H23        -5.6956   -8.6633    3.3549 H         1 <0>         0.0555
     53 H24        -0.6042  -10.1590   -0.9330 H         1 <0>         0.1357
     54 H25         1.2807  -11.5212   -1.7337 H         1 <0>         0.1312
     55 H26         2.5551  -12.9143   -0.1567 H         1 <0>         0.1293
     56 H27         1.9538  -12.9536    2.2283 H         1 <0>         0.1318
     57 H28         0.0799  -11.5897    3.0518 H         1 <0>         0.1321
@<TRIPOS>BOND
     1    1    2 1
     2    1   30 1
     3    1   31 1
     4    1   32 1
     5    2    7 ar
     6    2    3 ar
     7    3    4 ar
     8    3   33 1
     9    4    5 ar
    10    4   34 1
    11    5    6 ar
    12    5    9 1
    13    6    7 ar
    14    6   35 1
    15    7    8 1
    16    8   36 1
    17    8   37 1
    18    8   38 1
    19    9   10 1
    20   10   11 1
    21   10   39 1
    22   10   40 1
    23   11   15 1
    24   11   12 2
    25   12   13 1
    26   13   14 2
    27   13   16 1
    28   14   15 1
    29   14   41 1
    30   16   17 1
    31   16   42 1
    32   16   43 1
    33   17   18 1
    34   17   22 am
    35   18   19 1
    36   18   44 1
    37   18   45 1
    38   19   20 1
    39   19   21 1
    40   19   46 1
    41   20   47 1
    42   20   48 1
    43   20   49 1
    44   21   50 1
    45   21   51 1
    46   21   52 1
    47   22   23 2
    48   22   24 1
    49   24   29 ar
    50   24   25 ar
    51   25   26 ar
    52   25   53 1
    53   26   27 ar
    54   26   54 1
    55   27   28 ar
    56   27   55 1
    57   28   29 ar
    58   28   56 1
    59   29   57 1
@<TRIPOS>MOLECULE
ZINC04572530
   57    59     0     0     0
SMALL
USER_CHARGES

@<TRIPOS>ATOM
      1 C1          3.9785   -0.4478    8.4526 C.3       1 <0>        -0.1179
      2 C2          4.3452   -1.5746    7.5215 C.ar      1 <0>        -0.0872
      3 C3          4.8053   -2.7732    8.0344 C.ar      1 <0>        -0.1110
      4 C4          5.1416   -3.8066    7.1805 C.ar      1 <0>        -0.1187
      5 C5          5.0175   -3.6419    5.8134 C.ar      1 <0>        -0.1062
      6 C6          4.5567   -2.4440    5.3007 C.ar      1 <0>        -0.1078
      7 C7          4.2162   -1.4117    6.1551 C.ar      1 <0>        -0.0965
      8 C8          4.4218   -2.2643    3.8105 C.3       1 <0>         0.1213
      9 N1          3.1359   -2.8086    3.3674 N.pl3     1 <0>        -0.4344
     10 C9          2.9249   -4.0755    2.9097 C.2       1 <0>        -0.0053
     11 C10         1.6184   -4.1996    2.5997 C.2       1 <0>        -0.1992
     12 C11         1.0001   -2.9641    2.8762 C.2       1 <0>        -0.1709
     13 C12         1.9513   -2.1339    3.3501 C.2       1 <0>        -0.0107
     14 C13         1.7418   -0.7055    3.7822 C.3       1 <0>         0.1779
     15 N2          2.0310    0.1914    2.6605 N.pl3     1 <0>        -0.9843
     16 C14         0.9851    0.5026    1.6829 C.3       1 <0>         0.1429
     17 C15         0.4550   -0.7962    1.0723 C.3       1 <0>        -0.1678
     18 C16        -0.1588    1.2434    2.3784 C.3       1 <0>        -0.1621
     19 S1          3.5402    0.8534    2.4975 S.o2      1 <0>         2.6703
     20 O1          3.3683    2.0975    1.8328 O.2       1 <0>        -0.9568
     21 O2          4.1689    0.7486    3.7675 O.2       1 <0>        -0.9536
     22 C17         4.4479   -0.1831    1.3992 C.2       1 <0>        -0.7653
     23 C18         4.8388    0.2812    0.2206 C.2       1 <0>         0.0683
     24 C19         5.6002   -0.5883   -0.7007 C.ar      1 <0>        -0.0997
     25 C20         5.9043   -1.9002   -0.3354 C.ar      1 <0>        -0.0846
     26 C21         6.6154   -2.7067   -1.1999 C.ar      1 <0>        -0.1251
     27 C22         7.0272   -2.2171   -2.4266 C.ar      1 <0>        -0.0959
     28 C23         6.7294   -0.9172   -2.7946 C.ar      1 <0>        -0.1247
     29 C24         6.0131   -0.1026   -1.9419 C.ar      1 <0>        -0.0855
     30 H1          2.9080   -0.4780    8.6556 H         1 <0>         0.0715
     31 H2          4.5288   -0.5552    9.3874 H         1 <0>         0.0668
     32 H3          4.2335    0.5048    7.9882 H         1 <0>         0.0703
     33 H4          4.9023   -2.9019    9.1024 H         1 <0>         0.1229
     34 H5          5.5017   -4.7427    7.5812 H         1 <0>         0.1235
     35 H6          5.2810   -4.4492    5.1461 H         1 <0>         0.1185
     36 H7          3.8525   -0.4770    5.7546 H         1 <0>         0.1382
     37 H8          4.4706   -1.2031    3.5666 H         1 <0>         0.1051
     38 H9          5.2323   -2.7906    3.3063 H         1 <0>         0.0961
     39 H10         3.6748   -4.8465    2.8118 H         1 <0>         0.1579
     40 H11         1.1348   -5.0835    2.2109 H         1 <0>         0.1342
     41 H12        -0.0445   -2.7270    2.7383 H         1 <0>         0.1382
     42 H13         0.7076   -0.5695    4.0987 H         1 <0>         0.1103
     43 H14         2.4092   -0.4755    4.6127 H         1 <0>         0.0986
     44 H15         1.3996    1.1318    0.8953 H         1 <0>         0.0942
     45 H16        -0.1280   -1.3368    1.8179 H         1 <0>         0.0738
     46 H17        -0.1774   -0.5633    0.2156 H         1 <0>         0.0622
     47 H18         1.2927   -1.4138    0.7483 H         1 <0>         0.0637
     48 H19         0.2029    2.2011    2.7526 H         1 <0>         0.0618
     49 H20        -0.9672    1.4131    1.6672 H         1 <0>         0.0714
     50 H21        -0.5271    0.6437    3.2107 H         1 <0>         0.0632
     51 H22         4.6858   -1.1968    1.6861 H         1 <0>         0.1605
     52 H23         4.6008    1.2948   -0.0663 H         1 <0>         0.1447
     53 H24         5.5840   -2.2834    0.6222 H         1 <0>         0.1234
     54 H25         6.8514   -3.7223   -0.9184 H         1 <0>         0.1284
     55 H26         7.5839   -2.8523   -3.0996 H         1 <0>         0.1283
     56 H27         7.0543   -0.5407   -3.7533 H         1 <0>         0.1306
     57 H28         5.7768    0.9104   -2.2325 H         1 <0>         0.1321
@<TRIPOS>BOND
     1    1    2 1
     2    1   30 1
     3    1   31 1
     4    1   32 1
     5    2    7 ar
     6    2    3 ar
     7    3    4 ar
     8    3   33 1
     9    4    5 ar
    10    4   34 1
    11    5    6 ar
    12    5   35 1
    13    6    7 ar
    14    6    8 1
    15    7   36 1
    16    8    9 1
    17    8   37 1
    18    8   38 1
    19    9   13 1
    20    9   10 1
    21   10   11 2
    22   10   39 1
    23   11   12 1
    24   11   40 1
    25   12   13 2
    26   12   41 1
    27   13   14 1
    28   14   15 1
    29   14   42 1
    30   14   43 1
    31   15   16 1
    32   15   19 1
    33   16   17 1
    34   16   18 1
    35   16   44 1
    36   17   45 1
    37   17   46 1
    38   17   47 1
    39   18   48 1
    40   18   49 1
    41   18   50 1
    42   19   20 2
    43   19   21 2
    44   19   22 1
    45   22   23 2
    46   22   51 1
    47   23   24 1
    48   23   52 1
    49   24   29 ar
    50   24   25 ar
    51   25   26 ar
    52   25   53 1
    53   26   27 ar
    54   26   54 1
    55   27   28 ar
    56   27   55 1
    57   28   29 ar
    58   28   56 1
    59   29   57 1
@<TRIPOS>MOLECULE
ZINC13023361
   42    43     0     0     0
SMALL
USER_CHARGES
5-acetyl-2-[4-(4-fluorophenyl)-4-oxo-butyl]sulfanyl-6-methyl-pyridine-3-carbonitrile
@<TRIPOS>ATOM
      1 C1          1.2810   -2.1891    0.0694 C.3       1 <0>        -0.1177
      2 C2          1.2220   -0.6838    0.0309 C.ar      1 <0>         0.2376
      3 C3          2.3842    0.0456   -0.2547 C.ar      1 <0>        -0.2407
      4 C4          2.3208    1.4462   -0.2892 C.ar      1 <0>         0.0411
      5 C5          1.0938    2.0569   -0.0356 C.ar      1 <0>        -0.0829
      6 C6         -0.0262    1.2481    0.2432 C.ar      1 <0>         0.1896
      7 N1          0.0813   -0.0743    0.2651 N.ar      1 <0>        -0.4964
      8 S1         -1.5877    2.0008    0.5591 S.3       1 <0>        -0.0212
      9 C7         -2.5989    0.5245    0.8311 C.3       1 <0>        -0.1078
     10 C8         -4.0399    0.9417    1.1321 C.3       1 <0>        -0.1042
     11 C9         -4.8947   -0.3062    1.3620 C.3       1 <0>        -0.1505
     12 C10        -6.3139    0.1047    1.6585 C.2       1 <0>         0.3981
     13 O1         -6.6123    1.2799    1.6834 O.2       1 <0>        -0.4446
     14 C11        -7.3368   -0.9190    1.9175 C.ar      1 <0>        -0.1853
     15 C12        -6.9971   -2.2762    1.8838 C.ar      1 <0>        -0.0428
     16 C13        -7.9590   -3.2301    2.1330 C.ar      1 <0>        -0.1666
     17 C14        -9.2645   -2.8484    2.4056 C.ar      1 <0>         0.1334
     18 C15        -9.6091   -1.5051    2.4349 C.ar      1 <0>        -0.1661
     19 C16        -8.6556   -0.5408    2.1931 C.ar      1 <0>        -0.0304
     20 F1        -10.2043   -3.7892    2.6441 F         1 <0>        -0.1313
     21 C17         0.9730    3.4836   -0.0585 C.1       1 <0>         0.2476
     22 N2          0.8771    4.6154   -0.0767 N.1       1 <0>        -0.3821
     23 C18         3.6518   -0.6477   -0.5140 C.2       1 <0>         0.4022
     24 O2          3.6765   -1.8581   -0.5906 O.2       1 <0>        -0.4434
     25 C19         4.9224    0.1443   -0.6850 C.3       1 <0>        -0.1931
     26 H1          1.1893   -2.5824   -0.9430 H         1 <0>         0.0937
     27 H2          2.2328   -2.5046    0.4969 H         1 <0>         0.1058
     28 H3          0.4637   -2.5692    0.6823 H         1 <0>         0.0776
     29 H4          3.1993    2.0358   -0.5064 H         1 <0>         0.1610
     30 H5         -2.5803   -0.0985   -0.0631 H         1 <0>         0.1021
     31 H6         -2.2000   -0.0388    1.6747 H         1 <0>         0.1024
     32 H7         -4.0585    1.5646    2.0263 H         1 <0>         0.0823
     33 H8         -4.4388    1.5050    0.2885 H         1 <0>         0.0820
     34 H9         -4.8776   -0.8777    0.5416 H         1 <0>         0.0955
     35 H10        -4.4958   -0.8695    2.2056 H         1 <0>         0.1062
     36 H11        -5.9820   -2.5748    1.6673 H         1 <0>         0.1439
     37 H12        -7.6972   -4.2777    2.1117 H         1 <0>         0.1445
     38 H13       -10.6272   -1.2145    2.6481 H         1 <0>         0.1441
     39 H14        -8.9252    0.5047    2.2165 H         1 <0>         0.1452
     40 H15         5.3628    0.2641    0.2048 H         1 <0>         0.0911
     41 H16         5.5961   -0.3900   -1.3550 H         1 <0>         0.0945
     42 H17         4.6877    1.1208   -1.1086 H         1 <0>         0.0856
@<TRIPOS>BOND
     1    1    2 1
     2    1   26 1
     3    1   27 1
     4    1   28 1
     5    2    7 ar
     6    2    3 ar
     7    3    4 ar
     8    3   23 1
     9    4    5 ar
    10    4   29 1
    11    5    6 ar
    12    5   21 1
    13    6    7 ar
    14    6    8 1
    15    8    9 1
    16    9   10 1
    17    9   30 1
    18    9   31 1
    19   10   11 1
    20   10   32 1
    21   10   33 1
    22   11   12 1
    23   11   34 1
    24   11   35 1
    25   12   13 2
    26   12   14 1
    27   14   19 ar
    28   14   15 ar
    29   15   16 ar
    30   15   36 1
    31   16   17 ar
    32   16   37 1
    33   17   18 ar
    34   17   20 1
    35   18   19 ar
    36   18   38 1
    37   19   39 1
    38   21   22 3
    39   23   24 2
    40   23   25 1
    41   25   40 1
    42   25   41 1
    43   25   42 1
@<TRIPOS>MOLECULE
ZINC41502970
   43    45     0     0     0
SMALL
USER_CHARGES

@<TRIPOS>ATOM
      1 C1         -0.0187    1.5258    0.0104 C.3       1 <0>        -0.1532
      2 C2          0.0021   -0.0041    0.0020 C.3       1 <0>         0.0538
      3 O1          0.6932   -0.4774    1.1597 O.3       1 <0>        -0.3126
      4 C3          0.8020   -1.8242    1.3057 C.ar      1 <0>         0.1342
      5 C4          0.2597   -2.6727    0.3511 C.ar      1 <0>        -0.2074
      6 C5          0.3720   -4.0411    0.5015 C.ar      1 <0>        -0.0811
      7 C6          1.0242   -4.5657    1.6023 C.ar      1 <0>        -0.1549
      8 C7          1.5650   -3.7225    2.5550 C.ar      1 <0>        -0.0774
      9 C8          1.4603   -2.3528    2.4062 C.ar      1 <0>        -0.1182
     10 C9          2.0555   -1.4341    3.4420 C.3       1 <0>        -0.0619
     11 C10         0.9792   -1.0448    4.4573 C.3       1 <0>        -0.1571
     12 C11         1.5744   -0.1261    5.4930 C.2       1 <0>         0.3674
     13 O2          2.7392    0.1852    5.4260 O.2       1 <0>        -0.3953
     14 C12         0.7159    0.4041    6.6123 C.3       1 <0>         0.0563
     15 H1         -0.3148    0.4926    6.2691 H         1 <0>         0.1647
     16 C13         0.7745   -0.5207    7.7560 C.1       1 <0>         0.2141
     17 N1          0.8198   -1.2345    8.6386 N.1       1 <0>        -0.3786
     18 C14         1.2225    1.7589    7.0354 C.2       1 <0>         0.0758
     19 N2          2.4014    2.0616    7.4953 N.2       1 <0>        -0.4674
     20 C15         2.7361    3.3217    7.8412 C.ar      1 <0>         0.0758
     21 C16         3.9499    3.8284    8.3510 C.ar      1 <0>        -0.0497
     22 C17         4.0805    5.1522    8.6395 C.ar      1 <0>        -0.1104
     23 C18         3.0358    6.0454    8.4455 C.ar      1 <0>        -0.0864
     24 C19         1.8310    5.5865    7.9471 C.ar      1 <0>        -0.0675
     25 C20         1.6891    4.2521    7.6527 C.ar      1 <0>        -0.1591
     26 S1          0.3935    3.2235    7.0128 S.3       1 <0>         0.1186
     27 H2          1.0039    1.9031    0.0027 H         1 <0>         0.0666
     28 H3         -0.5459    1.8868   -0.8726 H         1 <0>         0.0789
     29 H4         -0.5289    1.8773    0.9072 H         1 <0>         0.0670
     30 H5         -1.0205   -0.3814    0.0098 H         1 <0>         0.0626
     31 H6          0.5123   -0.3556   -0.8948 H         1 <0>         0.0616
     32 H7         -0.2501   -2.2635   -0.5086 H         1 <0>         0.1276
     33 H8         -0.0503   -4.7020   -0.2411 H         1 <0>         0.1245
     34 H9          1.1110   -5.6360    1.7181 H         1 <0>         0.1245
     35 H10         2.0736   -4.1346    3.4140 H         1 <0>         0.1293
     36 H11         2.8710   -1.9443    3.9546 H         1 <0>         0.0789
     37 H12         2.4373   -0.5367    2.9552 H         1 <0>         0.0852
     38 H13         0.1637   -0.5346    3.9447 H         1 <0>         0.1119
     39 H14         0.5974   -1.9422    4.9441 H         1 <0>         0.1062
     40 H15         4.7825    3.1601    8.5140 H         1 <0>         0.1357
     41 H16         5.0196    5.5164    9.0292 H         1 <0>         0.1376
     42 H17         3.1634    7.0913    8.6826 H         1 <0>         0.1419
     43 H18         1.0096    6.2700    7.7907 H         1 <0>         0.1378
@<TRIPOS>BOND
     1    1    2 1
     2    1   27 1
     3    1   28 1
     4    1   29 1
     5    2    3 1
     6    2   30 1
     7    2   31 1
     8    3    4 1
     9    4    9 ar
    10    4    5 ar
    11    5    6 ar
    12    5   32 1
    13    6    7 ar
    14    6   33 1
    15    7    8 ar
    16    7   34 1
    17    8    9 ar
    18    8   35 1
    19    9   10 1
    20   10   11 1
    21   10   36 1
    22   10   37 1
    23   11   12 1
    24   11   38 1
    25   11   39 1
    26   12   13 2
    27   12   14 1
    28   14   15 1
    29   14   16 1
    30   14   18 1
    31   16   17 3
    32   18   26 1
    33   18   19 2
    34   19   20 1
    35   20   25 ar
    36   20   21 ar
    37   21   22 ar
    38   21   40 1
    39   22   23 ar
    40   22   41 1
    41   23   24 ar
    42   23   42 1
    43   24   25 ar
    44   24   43 1
    45   25   26 1
@<TRIPOS>MOLECULE
ZINC13994027
   53    55     0     0     0
SMALL
USER_CHARGES

@<TRIPOS>ATOM
      1 C1         -0.0773    1.6895    1.1439 C.3       1 <0>        -0.1502
      2 C2         -0.0858    0.1638    1.0306 C.3       1 <0>        -0.1386
      3 C3          0.3276   -0.2448   -0.3847 C.3       1 <0>         0.1317
      4 N1          0.3195   -1.7058   -0.4932 N.pl3     1 <0>        -0.3694
      5 C4          1.3582   -2.5270   -0.2332 C.2       1 <0>         0.1179
      6 C5          0.9451   -3.7968   -0.4524 C.2       1 <0>        -0.2369
      7 C6         -0.3920   -3.7499   -0.8604 C.2       1 <0>         0.0511
      8 N2         -0.7698   -2.4974   -0.8793 N.2       1 <0>        -0.2982
      9 C7          1.7786   -5.0414   -0.2871 C.3       1 <0>         0.1343
     10 N3          1.8376   -5.4059    1.1347 N.3       1 <0>        -0.5155
     11 C8          2.8269   -6.4670    1.3655 C.3       1 <0>         0.0878
     12 C9          4.2143   -5.8814    1.3084 C.ar      1 <0>        -0.0426
     13 C10         4.9363   -5.9284    0.1302 C.ar      1 <0>        -0.1273
     14 C11         6.2089   -5.3917    0.0763 C.ar      1 <0>        -0.0914
     15 C12         6.7614   -4.8077    1.2006 C.ar      1 <0>        -0.1562
     16 C13         6.0395   -4.7601    2.3809 C.ar      1 <0>         0.0969
     17 C14         4.7622   -5.2927    2.4320 C.ar      1 <0>        -0.1268
     18 F1          6.5787   -4.1899    3.4806 F         1 <0>        -0.1408
     19 C15         0.5136   -5.8033    1.6318 C.3       1 <0>         0.0457
     20 C16         0.5159   -5.7826    3.1616 C.3       1 <0>         0.0871
     21 H1          1.2747   -6.4678    3.5395 H         1 <0>         0.0757
     22 C17        -0.8736   -6.1953    3.6930 C.3       1 <0>        -0.1520
     23 C18        -1.0632   -5.2362    4.8997 C.3       1 <0>        -0.1561
     24 C19        -0.3398   -3.9671    4.3832 C.3       1 <0>         0.0486
     25 O1          0.7835   -4.4554    3.6292 O.3       1 <0>        -0.3552
     26 C20         2.7324   -2.1055    0.2197 C.3       1 <0>        -0.0863
     27 H2          0.9251    2.0637    0.9359 H         1 <0>         0.0581
     28 H3         -0.7791    2.1112    0.4244 H         1 <0>         0.0585
     29 H4         -0.3718    1.9806    2.1522 H         1 <0>         0.0624
     30 H5          0.6160   -0.2579    1.7502 H         1 <0>         0.0689
     31 H6         -1.0882   -0.2104    1.2386 H         1 <0>         0.0703
     32 H7         -0.3742    0.1769   -1.1042 H         1 <0>         0.0934
     33 H8          1.3300    0.1293   -0.5926 H         1 <0>         0.0910
     34 H9         -1.0076   -4.6010   -1.1115 H         1 <0>         0.1753
     35 H10         1.3292   -5.8574   -0.8530 H         1 <0>         0.0392
     36 H11         2.7870   -4.8551   -0.6566 H         1 <0>         0.0807
     37 H12         2.6604   -6.9119    2.3466 H         1 <0>         0.0850
     38 H13         2.7240   -7.2331    0.5970 H         1 <0>         0.0486
     39 H14         4.5057   -6.3851   -0.7487 H         1 <0>         0.1254
     40 H15         6.7719   -5.4290   -0.8446 H         1 <0>         0.1310
     41 H16         7.7561   -4.3890    1.1585 H         1 <0>         0.1325
     42 H17         4.1964   -5.2521    3.3510 H         1 <0>         0.1355
     43 H18        -0.2381   -5.1070    1.2601 H         1 <0>         0.0851
     44 H19         0.2813   -6.8093    1.2823 H         1 <0>         0.0430
     45 H20        -1.6428   -6.0272    2.9393 H         1 <0>         0.0772
     46 H21        -0.8706   -7.2350    4.0205 H         1 <0>         0.0812
     47 H22        -2.1195   -5.0393    5.0828 H         1 <0>         0.0811
     48 H23        -0.5780   -5.6286    5.7934 H         1 <0>         0.0777
     49 H24        -1.0039   -3.3878    3.7416 H         1 <0>         0.0547
     50 H25         0.0031   -3.3597    5.2208 H         1 <0>         0.0815
     51 H26         2.7626   -2.0751    1.3088 H         1 <0>         0.0846
     52 H27         3.4702   -2.8204   -0.1444 H         1 <0>         0.0823
     53 H28         2.9583   -1.1160   -0.1778 H         1 <0>         0.0623
@<TRIPOS>BOND
     1    1    2 1
     2    1   27 1
     3    1   28 1
     4    1   29 1
     5    2    3 1
     6    2   30 1
     7    2   31 1
     8    3    4 1
     9    3   32 1
    10    3   33 1
    11    4    8 1
    12    4    5 1
    13    5    6 2
    14    5   26 1
    15    6    7 1
    16    6    9 1
    17    7    8 2
    18    7   34 1
    19    9   10 1
    20    9   35 1
    21    9   36 1
    22   10   11 1
    23   10   19 1
    24   11   12 1
    25   11   37 1
    26   11   38 1
    27   12   17 ar
    28   12   13 ar
    29   13   14 ar
    30   13   39 1
    31   14   15 ar
    32   14   40 1
    33   15   16 ar
    34   15   41 1
    35   16   17 ar
    36   16   18 1
    37   17   42 1
    38   19   20 1
    39   19   43 1
    40   19   44 1
    41   20   21 1
    42   20   25 1
    43   20   22 1
    44   22   23 1
    45   22   45 1
    46   22   46 1
    47   23   24 1
    48   23   47 1
    49   23   48 1
    50   24   25 1
    51   24   49 1
    52   24   50 1
    53   26   51 1
    54   26   52 1
    55   26   53 1
@<TRIPOS>MOLECULE
ZINC60467922
   44    46     0     0     0
SMALL
USER_CHARGES

@<TRIPOS>ATOM
      1 C1         -0.0178    1.4648    0.0101 C.3       1 <0>         0.0155
      2 N1          0.0021   -0.0041    0.0020 N.3       1 <0>        -0.5296
      3 C2          0.7062   -0.5275    1.1802 C.3       1 <0>         0.0942
      4 C3         -0.0734   -0.1864    2.4240 C.ar      1 <0>        -0.0798
      5 C4          0.1705    1.0036    3.0870 C.ar      1 <0>        -0.0834
      6 C5         -0.5405    1.3247    4.2294 C.ar      1 <0>        -0.1199
      7 C6         -1.4990    0.4594    4.7152 C.ar      1 <0>        -0.0690
      8 C7         -1.7506   -0.7427    4.0511 C.ar      1 <0>        -0.0282
      9 C8         -1.0324   -1.0582    2.8957 C.ar      1 <0>        -0.0470
     10 C9         -2.7439   -1.6456    4.5497 C.1       1 <0>         0.2512
     11 N2         -3.5319   -2.3619    4.9452 N.1       1 <0>        -0.4127
     12 C10         0.5996   -0.5156   -1.2387 C.3       1 <0>         0.1281
     13 C11        -0.2863   -0.1627   -2.4056 C.2       1 <0>         0.0743
     14 C12        -0.0644    0.9474   -3.1550 C.2       1 <0>        -0.2203
     15 S1         -1.3965    0.8181   -4.3371 S.3       1 <0>         0.1409
     16 C13        -2.0793   -0.6082   -3.7606 C.2       1 <0>         0.0378
     17 N3         -1.3087   -0.9205   -2.7487 N.2       1 <0>        -0.4752
     18 C14        -3.2820   -1.3492   -4.2852 C.3       1 <0>         0.1544
     19 O1         -4.4590   -0.8703   -3.6316 O.3       1 <0>        -0.3072
     20 C15        -5.6397   -1.4385   -3.9922 C.ar      1 <0>         0.1296
     21 C16        -5.6642   -2.4406   -4.9513 C.ar      1 <0>        -0.2097
     22 C17        -6.8655   -3.0170   -5.3159 C.ar      1 <0>        -0.0792
     23 C18        -8.0430   -2.5956   -4.7261 C.ar      1 <0>        -0.1562
     24 C19        -8.0213   -1.5967   -3.7703 C.ar      1 <0>        -0.0793
     25 C20        -6.8218   -1.0215   -3.3978 C.ar      1 <0>        -0.1483
     26 H1          1.0047    1.8421    0.0024 H         1 <0>         0.0293
     27 H2         -0.5450    1.8259   -0.8730 H         1 <0>         0.0686
     28 H3         -0.5280    1.8163    0.9069 H         1 <0>         0.0746
     29 H4          0.8004   -1.6101    1.0960 H         1 <0>         0.0895
     30 H5          1.6983   -0.0800    1.2392 H         1 <0>         0.0512
     31 H6          0.9197    1.6846    2.7109 H         1 <0>         0.1277
     32 H7         -0.3446    2.2547    4.7423 H         1 <0>         0.1345
     33 H8         -2.0531    0.7111    5.6074 H         1 <0>         0.1329
     34 H9         -1.2247   -1.9847    2.3750 H         1 <0>         0.1339
     35 H10         1.5829   -0.0671   -1.3803 H         1 <0>         0.0563
     36 H11         0.7003   -1.5990   -1.1736 H         1 <0>         0.0941
     37 H12         0.7046    1.7000   -3.0621 H         1 <0>         0.1976
     38 H13        -3.3703   -1.1846   -5.3591 H         1 <0>         0.0904
     39 H14        -3.1660   -2.4152   -4.0894 H         1 <0>         0.0968
     40 H15        -4.7448   -2.7696   -5.4128 H         1 <0>         0.1281
     41 H16        -6.8851   -3.7971   -6.0625 H         1 <0>         0.1265
     42 H17        -8.9812   -3.0472   -5.0127 H         1 <0>         0.1251
     43 H18        -8.9424   -1.2691   -3.3113 H         1 <0>         0.1308
     44 H19        -6.8049   -0.2444   -2.6480 H         1 <0>         0.1311
@<TRIPOS>BOND
     1    1    2 1
     2    1   26 1
     3    1   27 1
     4    1   28 1
     5    2    3 1
     6    2   12 1
     7    3    4 1
     8    3   29 1
     9    3   30 1
    10    4    9 ar
    11    4    5 ar
    12    5    6 ar
    13    5   31 1
    14    6    7 ar
    15    6   32 1
    16    7    8 ar
    17    7   33 1
    18    8    9 ar
    19    8   10 1
    20    9   34 1
    21   10   11 3
    22   12   13 1
    23   12   35 1
    24   12   36 1
    25   13   17 1
    26   13   14 2
    27   14   15 1
    28   14   37 1
    29   15   16 1
    30   16   17 2
    31   16   18 1
    32   18   19 1
    33   18   38 1
    34   18   39 1
    35   19   20 1
    36   20   25 ar
    37   20   21 ar
    38   21   22 ar
    39   21   40 1
    40   22   23 ar
    41   22   41 1
    42   23   24 ar
    43   23   42 1
    44   24   25 ar
    45   24   43 1
    46   25   44 1
@<TRIPOS>MOLECULE
ZINC66559751
   50    52     0     0     0
SMALL
USER_CHARGES

@<TRIPOS>ATOM
      1 C1          0.0973    1.2523   -0.3028 C.2       1 <0>        -0.1743
      2 C2          0.0938   -0.0493   -0.1543 C.2       1 <0>        -0.1556
      3 C3          1.3968   -0.8004   -0.0594 C.3       1 <0>         0.0712
      4 N1          1.4179   -1.5896    1.1795 N.3       1 <0>        -0.5093
      5 C4          2.7813   -2.0351    1.4967 C.3       1 <0>         0.0428
      6 C5          3.6517   -0.8201    1.8242 C.3       1 <0>        -0.1167
      7 C6          5.0717   -1.2841    2.1545 C.3       1 <0>         0.0594
      8 O1          5.8845   -0.1493    2.4604 O.3       1 <0>        -0.3084
      9 C7          7.1831   -0.3887    2.7779 C.ar      1 <0>         0.1488
     10 C8          7.6638   -1.6680    2.7903 C.ar      1 <0>        -0.2241
     11 C9          8.9921   -1.9299    3.1135 C.ar      1 <0>        -0.0749
     12 C10         9.8512   -0.9206    3.4262 C.ar      1 <0>        -0.1459
     13 C11         9.3959    0.4088    3.4245 C.ar      1 <0>        -0.0190
     14 C12         8.0458    0.6810    3.0914 C.ar      1 <0>        -0.0716
     15 C13         7.5921    2.0099    3.0852 C.ar      1 <0>        -0.0841
     16 C14         8.4539    3.0175    3.3937 C.ar      1 <0>        -0.1290
     17 C15         9.7832    2.7509    3.7163 C.ar      1 <0>        -0.1024
     18 C16        10.2552    1.4746    3.7427 C.ar      1 <0>        -0.1171
     19 C17         0.4979   -2.7315    1.0920 C.3       1 <0>         0.0794
     20 H1         -0.4813   -2.3903    0.7561 H         1 <0>         0.1123
     21 C18         0.3697   -3.4018    2.4700 C.3       1 <0>        -0.1214
     22 C19        -0.3293   -4.7751    2.3257 C.3       1 <0>        -0.5766
     23 S1          0.1205   -5.2796    0.6152 S.o2      1 <0>         2.3723
     24 O2         -1.0636   -5.3786   -0.1641 O.2       1 <0>        -0.9328
     25 O3          1.0105   -6.3856    0.6784 O.2       1 <0>        -0.9360
     26 C20         1.0592   -3.7829    0.0927 C.3       1 <0>        -0.6268
     27 H2          1.0341    1.7870   -0.3572 H         1 <0>         0.0971
     28 H3         -0.8365    1.7900   -0.3753 H         1 <0>         0.1006
     29 H4         -0.8430   -0.5840   -0.0999 H         1 <0>         0.1094
     30 H5          1.4954   -1.4667   -0.9163 H         1 <0>         0.0527
     31 H6          2.2250   -0.0918   -0.0529 H         1 <0>         0.0885
     32 H7          2.7540   -2.7047    2.3563 H         1 <0>         0.0878
     33 H8          3.2003   -2.5616    0.6391 H         1 <0>         0.0482
     34 H9          3.6790   -0.1504    0.9646 H         1 <0>         0.0772
     35 H10         3.2327   -0.2936    2.6817 H         1 <0>         0.0872
     36 H11         5.0443   -1.9538    3.0141 H         1 <0>         0.0665
     37 H12         5.4906   -1.8106    1.2970 H         1 <0>         0.0641
     38 H13         7.0038   -2.4872    2.5461 H         1 <0>         0.1273
     39 H14         9.3470   -2.9499    3.1167 H         1 <0>         0.1254
     40 H15        10.8787   -1.1412    3.6751 H         1 <0>         0.1286
     41 H16         6.5646    2.2314    2.8368 H         1 <0>         0.1311
     42 H17         8.1024    4.0387    3.3879 H         1 <0>         0.1248
     43 H18        10.4465    3.5686    3.9569 H         1 <0>         0.1249
     44 H19        11.2877    1.2828    3.9950 H         1 <0>         0.1301
     45 H20         1.3625   -3.5442    2.8969 H         1 <0>         0.0899
     46 H21        -0.2186   -2.7638    3.1295 H         1 <0>         0.1054
     47 H22         0.0614   -5.4861    3.0537 H         1 <0>         0.1439
     48 H23        -1.4097   -4.6714    2.4265 H         1 <0>         0.1420
     49 H24         0.8265   -3.5116   -0.9370 H         1 <0>         0.1437
     50 H25         2.1316   -3.9227    0.2285 H         1 <0>         0.1431
@<TRIPOS>BOND
     1    1    2 2
     2    1   27 1
     3    1   28 1
     4    2    3 1
     5    2   29 1
     6    3    4 1
     7    3   30 1
     8    3   31 1
     9    4    5 1
    10    4   19 1
    11    5    6 1
    12    5   32 1
    13    5   33 1
    14    6    7 1
    15    6   34 1
    16    6   35 1
    17    7    8 1
    18    7   36 1
    19    7   37 1
    20    8    9 1
    21    9   14 ar
    22    9   10 ar
    23   10   11 ar
    24   10   38 1
    25   11   12 ar
    26   11   39 1
    27   12   13 ar
    28   12   40 1
    29   13   18 ar
    30   13   14 ar
    31   14   15 ar
    32   15   16 ar
    33   15   41 1
    34   16   17 ar
    35   16   42 1
    36   17   18 ar
    37   17   43 1
    38   18   44 1
    39   19   20 1
    40   19   26 1
    41   19   21 1
    42   21   22 1
    43   21   45 1
    44   21   46 1
    45   22   23 1
    46   22   47 1
    47   22   48 1
    48   23   24 2
    49   23   25 2
    50   23   26 1
    51   26   49 1
    52   26   50 1
@<TRIPOS>MOLECULE
ZINC04889266
   55    58     0     0     0
SMALL
USER_CHARGES
2-benzylideneaminoimino-5-butyl-3-(1-naphthylmethyl)thiazolidin-4-one
@<TRIPOS>ATOM
      1 C1          1.9886    5.5319    7.5446 C.3       1 <0>        -0.1540
      2 C2          1.6182    5.0907    6.1273 C.3       1 <0>        -0.1231
      3 C3          2.8905    4.9416    5.2907 C.3       1 <0>        -0.1210
      4 C4          2.5201    4.5004    3.8733 C.3       1 <0>        -0.0943
      5 C5          3.7925    4.3514    3.0367 C.3       1 <0>        -0.0884
      6 H1          4.3532    5.2855    3.0060 H         1 <0>         0.1554
      7 C6          3.4799    3.8544    1.6345 C.2       1 <0>         0.5259
      8 O1          2.7960    4.4920    0.8624 O.2       1 <0>        -0.4631
      9 N1          3.9968    2.6813    1.3111 N.am      1 <0>        -0.5403
     10 C7          4.7794    1.9544    2.1822 C.2       1 <0>         0.4161
     11 N2          5.3520    0.7856    1.9793 N.2       1 <0>        -0.3509
     12 N3          6.0576    0.2424    2.9126 N.2       1 <0>        -0.3468
     13 C8          6.6251   -0.9159    2.7116 C.2       1 <0>         0.2017
     14 C9          7.4300   -1.5356    3.7763 C.ar      1 <0>        -0.0732
     15 C10         7.5940   -0.8842    5.0029 C.ar      1 <0>        -0.0703
     16 C11         8.3453   -1.4739    5.9975 C.ar      1 <0>        -0.1289
     17 C12         8.9454   -2.7020    5.7804 C.ar      1 <0>        -0.0982
     18 C13         8.7921   -3.3505    4.5674 C.ar      1 <0>        -0.1271
     19 C14         8.0395   -2.7764    3.5648 C.ar      1 <0>        -0.0836
     20 S1          4.8347    2.9696    3.6511 S.3       1 <0>        -0.1075
     21 C15         3.7332    2.1372   -0.0233 C.3       1 <0>         0.1395
     22 C16         2.4307    1.3793   -0.0085 C.ar      1 <0>        -0.0839
     23 C17         1.7644    1.1869    1.1628 C.ar      1 <0>        -0.1043
     24 C18         0.5590    0.4889    1.1962 C.ar      1 <0>        -0.1108
     25 C19         0.0126   -0.0210    0.0584 C.ar      1 <0>        -0.1023
     26 C20         0.6712    0.1580   -1.1698 C.ar      1 <0>        -0.0481
     27 C21         1.8973    0.8685   -1.2037 C.ar      1 <0>        -0.0381
     28 C22         2.5564    1.0469   -2.4322 C.ar      1 <0>        -0.1113
     29 C23         2.0104    0.5368   -3.5695 C.ar      1 <0>        -0.1096
     30 C24         0.8047   -0.1618   -3.5362 C.ar      1 <0>        -0.1154
     31 C25         0.1411   -0.3587   -2.3645 C.ar      1 <0>        -0.1031
     32 H2          2.5100    6.4882    7.5029 H         1 <0>         0.0547
     33 H3          1.0821    5.6381    8.1406 H         1 <0>         0.0555
     34 H4          2.6374    4.7839    8.0002 H         1 <0>         0.0551
     35 H5          0.9693    5.8387    5.6717 H         1 <0>         0.0640
     36 H6          1.0967    4.1344    6.1690 H         1 <0>         0.0635
     37 H7          3.5394    4.1936    5.7462 H         1 <0>         0.0723
     38 H8          3.4120    5.8979    5.2489 H         1 <0>         0.0695
     39 H9          1.8713    5.2484    3.4177 H         1 <0>         0.0935
     40 H10         1.9987    3.5441    3.9151 H         1 <0>         0.0776
     41 H11         6.5038   -1.4193    1.7638 H         1 <0>         0.1170
     42 H12         7.1303    0.0764    5.1720 H         1 <0>         0.1336
     43 H13         8.4696   -0.9740    6.9467 H         1 <0>         0.1268
     44 H14         9.5361   -3.1568    6.5618 H         1 <0>         0.1253
     45 H15         9.2634   -4.3087    4.4056 H         1 <0>         0.1281
     46 H16         7.9208   -3.2836    2.6187 H         1 <0>         0.1295
     47 H17         4.5420    1.4640   -0.3075 H         1 <0>         0.1149
     48 H18         3.6704    2.9537   -0.7427 H         1 <0>         0.1101
     49 H19         2.1764    1.5810    2.0801 H         1 <0>         0.1096
     50 H20         0.0507    0.3499    2.1389 H         1 <0>         0.1244
     51 H21        -0.9220   -0.5605    0.0995 H         1 <0>         0.1296
     52 H22         3.4915    1.5857   -2.4733 H         1 <0>         0.1256
     53 H23         2.5191    0.6750   -4.5121 H         1 <0>         0.1252
     54 H24         0.3931   -0.5563   -4.4534 H         1 <0>         0.1251
     55 H25        -0.7900   -0.9059   -2.3533 H         1 <0>         0.1288
@<TRIPOS>BOND
     1    1    2 1
     2    1   32 1
     3    1   33 1
     4    1   34 1
     5    2    3 1
     6    2   35 1
     7    2   36 1
     8    3    4 1
     9    3   37 1
    10    3   38 1
    11    4    5 1
    12    4   39 1
    13    4   40 1
    14    5    6 1
    15    5   20 1
    16    5    7 1
    17    7    8 2
    18    7    9 am
    19    9   10 1
    20    9   21 1
    21   10   11 2
    22   10   20 1
    23   11   12 1
    24   12   13 2
    25   13   14 1
    26   13   41 1
    27   14   19 ar
    28   14   15 ar
    29   15   16 ar
    30   15   42 1
    31   16   17 ar
    32   16   43 1
    33   17   18 ar
    34   17   44 1
    35   18   19 ar
    36   18   45 1
    37   19   46 1
    38   21   22 1
    39   21   47 1
    40   21   48 1
    41   22   27 ar
    42   22   23 ar
    43   23   24 ar
    44   23   49 1
    45   24   25 ar
    46   24   50 1
    47   25   26 ar
    48   25   51 1
    49   26   31 ar
    50   26   27 ar
    51   27   28 ar
    52   28   29 ar
    53   28   52 1
    54   29   30 ar
    55   29   53 1
    56   30   31 ar
    57   30   54 1
    58   31   55 1
@<TRIPOS>MOLECULE
ZINC13479607
   52    54     0     0     0
SMALL
USER_CHARGES
2-ethyl-7-[4-methoxy-2-(trifluoromethyl)phenyl]-3-[(1S)-1-methylbutyl]imidazo[5,4-b]pyridine
@<TRIPOS>ATOM
      1 C1        -10.0730    4.2554    1.2631 C.3       1 <0>        -0.1526
      2 C2         -8.9981    4.6947    2.2593 C.3       1 <0>        -0.1201
      3 C3         -7.6213    4.2702    1.7443 C.3       1 <0>        -0.1319
      4 C4         -6.5464    4.7095    2.7405 C.3       1 <0>         0.1397
      5 H1         -6.7823    4.3128    3.7279 H         1 <0>         0.1022
      6 C5         -6.5021    6.2377    2.8020 C.3       1 <0>        -0.1657
      7 N1         -5.2426    4.2002    2.3082 N.pl3     1 <0>        -0.4723
      8 C6         -4.4321    3.3616    3.0103 C.2       1 <0>         0.2970
      9 N2         -3.3512    3.1123    2.3292 N.2       1 <0>        -0.4644
     10 C7         -3.3981    3.7736    1.1482 C.ar      1 <0>         0.0255
     11 C8         -4.6112    4.4816    1.1156 C.ar      1 <0>         0.2489
     12 N3         -4.9260    5.2251    0.0663 N.ar      1 <0>        -0.4723
     13 C9         -4.1269    5.3310   -0.9765 C.ar      1 <0>         0.1332
     14 C10        -2.9128    4.6715   -1.0262 C.ar      1 <0>        -0.1615
     15 C11        -2.5255    3.8683    0.0465 C.ar      1 <0>         0.0266
     16 C12        -1.2343    3.1427    0.0303 C.ar      1 <0>        -0.0316
     17 C13        -0.0334    3.8527    0.0226 C.ar      1 <0>        -0.0597
     18 C14         1.1665    3.1743    0.0075 C.ar      1 <0>        -0.1779
     19 C15         1.1808    1.7856    0.0004 C.ar      1 <0>         0.1349
     20 C16        -0.0126    1.0758    0.0080 C.ar      1 <0>        -0.1066
     21 C17        -1.2163    1.7481    0.0173 C.ar      1 <0>        -0.1143
     22 C18        -2.5111    0.9770    0.0197 C.3       1 <0>         0.4998
     23 F1         -2.2368   -0.3948    0.0113 F         1 <0>        -0.1799
     24 F2         -3.2436    1.2991    1.1673 F         1 <0>        -0.1466
     25 F3         -3.2548    1.3108   -1.1172 F         1 <0>        -0.1776
     26 O1          2.3650    1.1201   -0.0145 O.3       1 <0>        -0.3107
     27 C19         3.5543    1.9123   -0.0216 C.3       1 <0>         0.0242
     28 C20        -4.7409    2.8037    4.3758 C.3       1 <0>        -0.0478
     29 C21        -4.1994    3.7511    5.4482 C.3       1 <0>        -0.1473
     30 H2        -10.0448    3.1713    1.1527 H         1 <0>         0.0537
     31 H3        -11.0538    4.5577    1.6301 H         1 <0>         0.0573
     32 H4         -9.8862    4.7240    0.2969 H         1 <0>         0.0559
     33 H5         -9.1849    4.2260    3.2255 H         1 <0>         0.0632
     34 H6         -9.0263    5.7787    2.3698 H         1 <0>         0.0683
     35 H7         -7.4346    4.7389    0.7780 H         1 <0>         0.0831
     36 H8         -7.5931    3.1862    1.6338 H         1 <0>         0.0653
     37 H9         -6.2662    6.6344    1.8146 H         1 <0>         0.0758
     38 H10        -7.4722    6.6166    3.1236 H         1 <0>         0.0795
     39 H11        -5.7363    6.5506    3.5118 H         1 <0>         0.0584
     40 H12        -4.4261    5.9494   -1.8098 H         1 <0>         0.1683
     41 H13        -2.2713    4.7753   -1.8888 H         1 <0>         0.1454
     42 H14        -0.0438    4.9327    0.0281 H         1 <0>         0.1392
     43 H15         2.0965    3.7234    0.0016 H         1 <0>         0.1411
     44 H16         0.0021   -0.0041    0.0020 H         1 <0>         0.1490
     45 H17         3.5804    2.5365    0.8715 H         1 <0>         0.0590
     46 H18         4.4263    1.2584   -0.0334 H         1 <0>         0.1052
     47 H19         3.5634    2.5461   -0.9083 H         1 <0>         0.0592
     48 H20        -5.8200    2.7028    4.4915 H         1 <0>         0.0852
     49 H21        -4.2709    1.8262    4.4837 H         1 <0>         0.1046
     50 H22        -3.1202    3.8521    5.3325 H         1 <0>         0.0654
     51 H23        -4.6694    4.7287    5.3403 H         1 <0>         0.0547
     52 H24        -4.4227    3.3476    6.4358 H         1 <0>         0.0718
@<TRIPOS>BOND
     1    1    2 1
     2    1   30 1
     3    1   31 1
     4    1   32 1
     5    2    3 1
     6    2   33 1
     7    2   34 1
     8    3    4 1
     9    3   35 1
    10    3   36 1
    11    4    5 1
    12    4    6 1
    13    4    7 1
    14    6   37 1
    15    6   38 1
    16    6   39 1
    17    7   11 1
    18    7    8 1
    19    8    9 2
    20    8   28 1
    21    9   10 1
    22   10   15 ar
    23   10   11 ar
    24   11   12 ar
    25   12   13 ar
    26   13   14 ar
    27   13   40 1
    28   14   15 ar
    29   14   41 1
    30   15   16 1
    31   16   21 ar
    32   16   17 ar
    33   17   18 ar
    34   17   42 1
    35   18   19 ar
    36   18   43 1
    37   19   20 ar
    38   19   26 1
    39   20   21 ar
    40   20   44 1
    41   21   22 1
    42   22   23 1
    43   22   24 1
    44   22   25 1
    45   26   27 1
    46   27   45 1
    47   27   46 1
    48   27   47 1
    49   28   29 1
    50   28   48 1
    51   28   49 1
    52   29   50 1
    53   29   51 1
    54   29   52 1
@<TRIPOS>MOLECULE
ZINC27527891
   45    47     0     0     0
SMALL
USER_CHARGES
(5Z)-5-[[4-[2-(4-chlorophenyl)sulfanylethoxy]phenyl]methylene]-3-ethyl-2-thioxo-thiazolidin-4-one
@<TRIPOS>ATOM
      1 C1          2.8237    7.8889    3.1780 C.3       1 <0>        -0.1674
      2 C2          3.5174    7.5137    1.8670 C.3       1 <0>         0.0751
      3 N1          3.3262    6.0850    1.6048 N.am      1 <0>        -0.5194
      4 C3          2.2729    5.6911    0.9090 C.2       1 <0>         0.5465
      5 O1          1.4562    6.4852    0.4804 O.2       1 <0>        -0.4588
      6 C4          2.1375    4.2388    0.6787 C.2       1 <0>        -0.2588
      7 C5          1.1745    3.5548    0.0099 C.2       1 <0>         0.1011
      8 C6          1.3424    2.1202   -0.2549 C.ar      1 <0>        -0.1423
      9 C7          0.2800    1.3732   -0.7786 C.ar      1 <0>        -0.0301
     10 C8          0.4430    0.0286   -1.0249 C.ar      1 <0>        -0.1532
     11 C9          1.6592   -0.5878   -0.7543 C.ar      1 <0>         0.1665
     12 C10         2.7172    0.1489   -0.2343 C.ar      1 <0>        -0.2070
     13 C11         2.5656    1.4942    0.0154 C.ar      1 <0>        -0.0395
     14 O2          1.8145   -1.9142   -0.9991 O.3       1 <0>        -0.3030
     15 C12         3.0898   -2.4845   -0.6983 C.3       1 <0>         0.0712
     16 C13         3.0741   -3.9763   -1.0376 C.3       1 <0>        -0.1227
     17 S1          4.6930   -4.7003   -0.6558 S.3       1 <0>        -0.0791
     18 C14         4.5154   -6.3973   -1.0954 C.ar      1 <0>        -0.0826
     19 C15         3.3071   -6.8632   -1.5994 C.ar      1 <0>        -0.1210
     20 C16         3.1727   -8.1926   -1.9480 C.ar      1 <0>        -0.0888
     21 C17         4.2363   -9.0630   -1.7855 C.ar      1 <0>        -0.0385
     22 C18         5.4392   -8.6032   -1.2785 C.ar      1 <0>        -0.0892
     23 C19         5.5815   -7.2737   -0.9335 C.ar      1 <0>        -0.0850
     24 Cl1         4.0615  -10.7348   -2.2192 Cl        1 <0>        -0.0627
     25 S2          3.5864    3.6284    1.5295 S.3       1 <0>         0.0727
     26 C20         4.2284    5.2016    2.0783 C.2       1 <0>         0.2629
     27 S3          5.6431    5.5127    2.9910 S.2       1 <0>        -0.3430
     28 H1          2.9673    8.9616    3.3748 H         1 <0>         0.0861
     29 H2          3.2568    7.3036    4.0025 H         1 <0>         0.0681
     30 H3          1.7483    7.6713    3.0991 H         1 <0>         0.0615
     31 H4          3.0843    8.0990    1.0425 H         1 <0>         0.1054
     32 H5          4.5928    7.7313    1.9458 H         1 <0>         0.1148
     33 H6          0.2683    4.0751   -0.3337 H         1 <0>         0.1693
     34 H7         -0.6640    1.8519   -0.9930 H         1 <0>         0.1454
     35 H8         -0.3757   -0.5485   -1.4288 H         1 <0>         0.1436
     36 H9          3.6599   -0.3352   -0.0256 H         1 <0>         0.1404
     37 H10         3.3881    2.0655    0.4197 H         1 <0>         0.1341
     38 H11         3.8661   -1.9812   -1.2934 H         1 <0>         0.0816
     39 H12         3.3065   -2.3542    0.3722 H         1 <0>         0.0820
     40 H13         2.2978   -4.4795   -0.4425 H         1 <0>         0.1048
     41 H14         2.8574   -4.1066   -2.1081 H         1 <0>         0.1047
     42 H15         2.4754   -6.1853   -1.7223 H         1 <0>         0.1336
     43 H16         2.2353   -8.5542   -2.3443 H         1 <0>         0.1389
     44 H17         6.2674   -9.2848   -1.1528 H         1 <0>         0.1419
     45 H18         6.5207   -6.9153   -0.5385 H         1 <0>         0.1401
@<TRIPOS>BOND
     1    1    2 1
     2    1   28 1
     3    1   29 1
     4    1   30 1
     5    2    3 1
     6    2   31 1
     7    2   32 1
     8    3   26 1
     9    3    4 am
    10    4    5 2
    11    4    6 1
    12    6    7 2
    13    6   25 1
    14    7    8 1
    15    7   33 1
    16    8   13 ar
    17    8    9 ar
    18    9   10 ar
    19    9   34 1
    20   10   11 ar
    21   10   35 1
    22   11   12 ar
    23   11   14 1
    24   12   13 ar
    25   12   36 1
    26   13   37 1
    27   14   15 1
    28   15   16 1
    29   15   38 1
    30   15   39 1
    31   16   17 1
    32   16   40 1
    33   16   41 1
    34   17   18 1
    35   18   23 ar
    36   18   19 ar
    37   19   20 ar
    38   19   42 1
    39   20   21 ar
    40   20   43 1
    41   21   22 ar
    42   21   24 1
    43   22   23 ar
    44   22   44 1
    45   23   45 1
    46   25   26 1
    47   26   27 2
@<TRIPOS>MOLECULE
ZINC37440537
   55    57     0     0     0
SMALL
USER_CHARGES

@<TRIPOS>ATOM
      1 C1          0.0418    1.7756   -0.0388 C.3       1 <0>        -0.1547
      2 C2         -0.0604    0.2498   -0.0879 C.3       1 <0>        -0.0507
      3 C3          0.5918   -0.3455    1.1615 C.3       1 <0>        -0.1540
      4 C4         -1.5332   -0.1613   -0.1395 C.3       1 <0>        -0.1430
      5 C5          0.6581   -0.2695   -1.3349 C.3       1 <0>        -0.1334
      6 C6          2.1088    0.1355   -1.2841 C.2       1 <0>         0.5143
      7 O1          2.5268    0.7764   -0.3431 O.2       1 <0>        -0.5103
      8 N1          2.9416   -0.2146   -2.2843 N.am      1 <0>        -0.6095
      9 C7          4.3518    0.1791   -2.2349 C.3       1 <0>         0.1563
     10 C8          5.1324   -0.8460   -1.4533 C.ar      1 <0>        -0.0852
     11 C9          4.5178   -2.0114   -1.0350 C.ar      1 <0>        -0.0997
     12 C10         5.2337   -2.9517   -0.3182 C.ar      1 <0>        -0.1124
     13 C11         6.5648   -2.7273   -0.0190 C.ar      1 <0>        -0.1114
     14 C12         7.1803   -1.5626   -0.4366 C.ar      1 <0>        -0.1058
     15 C13         6.4657   -0.6235   -1.1592 C.ar      1 <0>        -0.0317
     16 Cl1         7.2400    0.8369   -1.6899 Cl        1 <0>        -0.0642
     17 C14         2.4365   -0.9887   -3.4209 C.3       1 <0>         0.1123
     18 C15         1.9816   -0.0339   -4.5264 C.3       1 <0>         0.0240
     19 H1          1.2612    0.6887   -4.1430 H         1 <0>         0.0920
     20 C16         1.3966   -0.8153   -5.7271 C.3       1 <0>        -0.1407
     21 C17         1.8912   -0.0126   -6.9153 C.2       1 <0>         0.1099
     22 N2          2.8355    0.7693   -6.5106 N.2       1 <0>        -0.2517
     23 O2          3.1094    0.6320   -5.1298 O.3       1 <0>        -0.1871
     24 C18         1.3809   -0.1091   -8.2970 C.ar      1 <0>        -0.0368
     25 C19         0.3469   -0.9964   -8.6025 C.ar      1 <0>        -0.0767
     26 C20        -0.1252   -1.0817   -9.8955 C.ar      1 <0>        -0.1178
     27 C21         0.4233   -0.2909  -10.8901 C.ar      1 <0>        -0.0862
     28 C22         1.4476    0.5904  -10.5959 C.ar      1 <0>        -0.1140
     29 C23         1.9262    0.6910   -9.3041 C.ar      1 <0>        -0.0092
     30 Cl2         3.2068    1.8033   -8.9345 Cl        1 <0>        -0.0302
     31 H2          1.0910    2.0685   -0.0020 H         1 <0>         0.0827
     32 H3         -0.4229    2.1997   -0.9289 H         1 <0>         0.0452
     33 H4         -0.4701    2.1456    0.8496 H         1 <0>         0.0526
     34 H5          0.0800    0.0245    2.0499 H         1 <0>         0.0523
     35 H6          0.5191   -1.4325    1.1265 H         1 <0>         0.0454
     36 H7          1.6411   -0.0526    1.1983 H         1 <0>         0.0829
     37 H8         -1.9978    0.2628   -1.0296 H         1 <0>         0.0541
     38 H9         -1.6060   -1.2483   -0.1745 H         1 <0>         0.0545
     39 H10        -2.0450    0.2087    0.7489 H         1 <0>         0.0595
     40 H11         0.5853   -1.3565   -1.3699 H         1 <0>         0.0931
     41 H12         0.1934    0.1546   -2.2250 H         1 <0>         0.0912
     42 H13         4.7473    0.2415   -3.2487 H         1 <0>         0.1040
     43 H14         4.4409    1.1511   -1.7497 H         1 <0>         0.1013
     44 H15         3.4780   -2.1871   -1.2681 H         1 <0>         0.1254
     45 H16         4.7530   -3.8619    0.0087 H         1 <0>         0.1275
     46 H17         7.1235   -3.4622    0.5414 H         1 <0>         0.1316
     47 H18         8.2199   -1.3873   -0.2026 H         1 <0>         0.1342
     48 H19         3.2282   -1.6342   -3.8013 H         1 <0>         0.0950
     49 H20         1.5933   -1.5995   -3.0985 H         1 <0>         0.1031
     50 H21         1.7899   -1.8315   -5.7560 H         1 <0>         0.1089
     51 H22         0.3073   -0.8217   -5.6909 H         1 <0>         0.1078
     52 H23        -0.0819   -1.6149   -7.8279 H         1 <0>         0.1385
     53 H24        -0.9249   -1.7678  -10.1327 H         1 <0>         0.1379
     54 H25         0.0499   -0.3627  -11.9009 H         1 <0>         0.1384
     55 H26         1.8713    1.2043  -11.3769 H         1 <0>         0.1409
@<TRIPOS>BOND
     1    1    2 1
     2    1   31 1
     3    1   32 1
     4    1   33 1
     5    2    3 1
     6    2    4 1
     7    2    5 1
     8    3   34 1
     9    3   35 1
    10    3   36 1
    11    4   37 1
    12    4   38 1
    13    4   39 1
    14    5    6 1
    15    5   40 1
    16    5   41 1
    17    6    7 2
    18    6    8 am
    19    8    9 1
    20    8   17 1
    21    9   10 1
    22    9   42 1
    23    9   43 1
    24   10   15 ar
    25   10   11 ar
    26   11   12 ar
    27   11   44 1
    28   12   13 ar
    29   12   45 1
    30   13   14 ar
    31   13   46 1
    32   14   15 ar
    33   14   47 1
    34   15   16 1
    35   17   18 1
    36   17   48 1
    37   17   49 1
    38   18   19 1
    39   18   23 1
    40   18   20 1
    41   20   21 1
    42   20   50 1
    43   20   51 1
    44   21   22 2
    45   21   24 1
    46   22   23 1
    47   24   29 ar
    48   24   25 ar
    49   25   26 ar
    50   25   52 1
    51   26   27 ar
    52   26   53 1
    53   27   28 ar
    54   27   54 1
    55   28   29 ar
    56   28   55 1
    57   29   30 1
@<TRIPOS>MOLECULE
ZINC47132159
   50    53     0     0     0
SMALL
USER_CHARGES

@<TRIPOS>ATOM
      1 C1         -0.0187    1.5258    0.0104 C.3       1 <0>        -0.1251
      2 C2          0.0021   -0.0041    0.0020 C.3       1 <0>        -0.1371
      3 H1          0.0748   -0.4678   -0.9817 H         1 <0>         0.1070
      4 C3         -0.8275   -0.7277    1.0646 C.3       1 <0>        -0.1646
      5 C4          0.6996   -0.7075    1.1680 C.3       1 <0>        -0.0835
      6 H2          1.1437   -0.0805    1.9411 H         1 <0>         0.1344
      7 C5          1.4341   -1.9889    0.8686 C.2       1 <0>         0.0281
      8 C6          2.7461   -2.2086    1.0682 C.2       1 <0>        -0.2074
      9 C7          3.0072   -3.5346    0.6527 C.2       1 <0>        -0.1718
     10 C8          1.8392   -4.0458    0.2241 C.2       1 <0>        -0.0458
     11 O1          0.8887   -3.1070    0.3625 O.3       1 <0>        -0.1717
     12 C9          1.6312   -5.4377   -0.3149 C.3       1 <0>         0.2002
     13 N1          1.2935   -6.3425    0.7867 N.am      1 <0>        -0.6018
     14 C10        -0.1072   -6.5443    1.1657 C.3       1 <0>         0.1882
     15 C11        -0.6796   -7.6952    0.3790 C.2       1 <0>        -0.0434
     16 C12        -0.6712   -8.9866    0.7552 C.2       1 <0>        -0.1881
     17 C13        -1.3084   -9.7172   -0.2739 C.2       1 <0>        -0.2146
     18 C14        -1.6679   -8.8285   -1.2175 C.2       1 <0>        -0.0292
     19 O2         -1.2897   -7.6046   -0.8140 O.3       1 <0>        -0.1711
     20 C15         2.2714   -6.9892    1.4516 C.2       1 <0>         0.5562
     21 O3          3.4350   -6.8215    1.1367 O.2       1 <0>        -0.5239
     22 C16         1.9341   -7.8930    2.5519 C.2       1 <0>        -0.2053
     23 C17         2.9128   -8.5402    3.2173 C.2       1 <0>        -0.0190
     24 C18         2.5737   -9.4487    4.3234 C.ar      1 <0>        -0.0619
     25 C19         1.2369   -9.6485    4.6845 C.ar      1 <0>        -0.0785
     26 C20         0.9266  -10.5013    5.7212 C.ar      1 <0>        -0.1049
     27 C21         1.9346  -11.1610    6.4067 C.ar      1 <0>        -0.0144
     28 C22         3.2603  -10.9688    6.0563 C.ar      1 <0>        -0.1027
     29 C23         3.5866  -10.1222    5.0163 C.ar      1 <0>        -0.0049
     30 Cl1         5.2487   -9.8876    4.5734 Cl        1 <0>        -0.0401
     31 Cl2         1.5329  -12.2333    7.7115 Cl        1 <0>        -0.0485
     32 H3          1.0039    1.9031    0.0027 H         1 <0>         0.0631
     33 H4         -0.5459    1.8868   -0.8726 H         1 <0>         0.0651
     34 H5         -0.5289    1.8773    0.9072 H         1 <0>         0.0595
     35 H6         -1.3881   -0.1139    1.7696 H         1 <0>         0.1039
     36 H7         -1.3003   -1.6677    0.7800 H         1 <0>         0.0997
     37 H8          3.4626   -1.5066    1.4685 H         1 <0>         0.1480
     38 H9          3.9614   -4.0399    0.6750 H         1 <0>         0.1513
     39 H10         0.8176   -5.4287   -1.0401 H         1 <0>         0.0971
     40 H11         2.5458   -5.7802   -0.7990 H         1 <0>         0.1189
     41 H12        -0.1668   -6.7671    2.2310 H         1 <0>         0.1146
     42 H13        -0.6756   -5.6393    0.9514 H         1 <0>         0.1026
     43 H14        -0.2568   -9.3883    1.6680 H         1 <0>         0.1465
     44 H15        -1.4742  -10.7841   -0.2980 H         1 <0>         0.1501
     45 H16        -2.1779   -9.0595   -2.1411 H         1 <0>         0.2044
     46 H17         0.9015   -8.0418    2.8313 H         1 <0>         0.1323
     47 H18         3.9454   -8.3915    2.9380 H         1 <0>         0.1464
     48 H19         0.4499   -9.1351    4.1519 H         1 <0>         0.1453
     49 H20        -0.1051  -10.6558    6.0009 H         1 <0>         0.1462
     50 H21         4.0405  -11.4857    6.5954 H         1 <0>         0.1501
@<TRIPOS>BOND
     1    1    2 1
     2    1   32 1
     3    1   33 1
     4    1   34 1
     5    2    3 1
     6    2    5 1
     7    2    4 1
     8    4    5 1
     9    4   35 1
    10    4   36 1
    11    5    6 1
    12    5    7 1
    13    7   11 1
    14    7    8 2
    15    8    9 1
    16    8   37 1
    17    9   10 2
    18    9   38 1
    19   10   11 1
    20   10   12 1
    21   12   13 1
    22   12   39 1
    23   12   40 1
    24   13   14 1
    25   13   20 am
    26   14   15 1
    27   14   41 1
    28   14   42 1
    29   15   19 1
    30   15   16 2
    31   16   17 1
    32   16   43 1
    33   17   18 2
    34   17   44 1
    35   18   19 1
    36   18   45 1
    37   20   21 2
    38   20   22 1
    39   22   23 2
    40   22   46 1
    41   23   24 1
    42   23   47 1
    43   24   29 ar
    44   24   25 ar
    45   25   26 ar
    46   25   48 1
    47   26   27 ar
    48   26   49 1
    49   27   28 ar
    50   27   31 1
    51   28   29 ar
    52   28   50 1
    53   29   30 1
@<TRIPOS>MOLECULE
ZINC05095752
   61    62     0     0     0
SMALL
USER_CHARGES
2-ethyl-1-[4-(3-methylbutanoyl)-1-thia-4,8-diazaspiro[4.5]dec-8-yl]-hexan-1-one
@<TRIPOS>ATOM
      1 C1         -9.3544   -1.9040   -2.2275 C.3       1 <0>        -0.1531
      2 C2         -7.8920   -1.7060   -2.6315 C.3       1 <0>        -0.1253
      3 C3         -7.2176   -0.7450   -1.6504 C.3       1 <0>        -0.1198
      4 C4         -5.7552   -0.5470   -2.0544 C.3       1 <0>        -0.1019
      5 C5         -5.0483    0.3136   -1.0052 C.3       1 <0>        -0.1063
      6 H1         -5.1704   -0.1396   -0.0214 H         1 <0>         0.0877
      7 C6         -5.6595    1.7162   -1.0001 C.3       1 <0>        -0.1153
      8 C7         -5.4000    2.3905   -2.3487 C.3       1 <0>        -0.1533
      9 C8         -3.5812    0.4061   -1.3371 C.2       1 <0>         0.5212
     10 O1         -3.1870    0.0837   -2.4378 O.2       1 <0>        -0.5465
     11 N1         -2.7073    0.8472   -0.4107 N.am      1 <0>        -0.5829
     12 C9         -1.2623    0.8254   -0.6758 C.3       1 <0>         0.1058
     13 C10        -0.5663    0.0594    0.4553 C.3       1 <0>        -0.1230
     14 C11        -0.9702    0.6559    1.7958 C.3       1 <0>         0.2321
     15 C12        -2.4761    0.5885    2.0046 C.3       1 <0>        -0.1269
     16 C13        -3.1828    1.3579    0.8825 C.3       1 <0>         0.0787
     17 N2         -0.4768    2.0314    1.9345 N.am      1 <0>        -0.6119
     18 C14         0.5701    2.2363    2.9348 C.3       1 <0>         0.0944
     19 C15         0.4073    1.2385    4.1200 C.3       1 <0>        -0.0733
     20 S1         -0.1202   -0.2478    3.1526 S.3       1 <0>        -0.2828
     21 C16        -0.9587    3.0432    1.1859 C.2       1 <0>         0.4863
     22 O2         -1.7025    2.8093    0.2568 O.2       1 <0>        -0.4634
     23 C17        -0.5735    4.4651    1.5031 C.3       1 <0>        -0.1320
     24 C18        -1.2516    5.4109    0.5098 C.3       1 <0>        -0.0796
     25 C19        -0.9618    6.8600    0.9062 C.3       1 <0>        -0.1493
     26 C20        -0.7087    5.1485   -0.8963 C.3       1 <0>        -0.1538
     27 H2         -9.8349   -2.5886   -2.9264 H         1 <0>         0.0533
     28 H3         -9.4001   -2.3207   -1.2213 H         1 <0>         0.0527
     29 H4         -9.8699   -0.9439   -2.2469 H         1 <0>         0.0531
     30 H5         -7.8463   -1.2893   -3.6377 H         1 <0>         0.0615
     31 H6         -7.3765   -2.6662   -2.6120 H         1 <0>         0.0607
     32 H7         -7.2633   -1.1617   -0.6442 H         1 <0>         0.0598
     33 H8         -7.7331    0.2152   -1.6698 H         1 <0>         0.0642
     34 H9         -5.7101   -0.0491   -3.0230 H         1 <0>         0.0746
     35 H10        -5.2621   -1.5168   -2.1210 H         1 <0>         0.0643
     36 H11        -6.7339    1.6437   -0.8309 H         1 <0>         0.0740
     37 H12        -5.2056    2.3074   -0.2049 H         1 <0>         0.0675
     38 H13        -5.7568    3.4199   -2.3148 H         1 <0>         0.0536
     39 H14        -4.3304    2.3834   -2.5586 H         1 <0>         0.0572
     40 H15        -5.9279    1.8487   -3.1334 H         1 <0>         0.0580
     41 H16        -0.8821    1.8463   -0.7139 H         1 <0>         0.1126
     42 H17        -1.0724    0.3265   -1.6261 H         1 <0>         0.0792
     43 H18        -0.8626   -0.9890    0.4200 H         1 <0>         0.0787
     44 H19         0.5143    0.1358    0.3345 H         1 <0>         0.0845
     45 H20        -2.7299    1.0343    2.9664 H         1 <0>         0.0809
     46 H21        -2.7987   -0.4525    1.9903 H         1 <0>         0.0827
     47 H22        -2.9500    2.4196    0.9642 H         1 <0>         0.1328
     48 H23        -4.2604    1.2130    0.9589 H         1 <0>         0.0741
     49 H24         0.5094    3.2565    3.3138 H         1 <0>         0.0976
     50 H25         1.5445    2.0854    2.4702 H         1 <0>         0.0831
     51 H26        -0.3691    1.5623    4.8132 H         1 <0>         0.1016
     52 H27         1.3534    1.0679    4.6336 H         1 <0>         0.1259
     53 H28        -0.8936    4.7111    2.5155 H         1 <0>         0.0929
     54 H29         0.5085    4.5739    1.4276 H         1 <0>         0.0930
     55 H30        -2.3279    5.2394    0.5216 H         1 <0>         0.0776
     56 H31         0.1146    7.0316    0.8944 H         1 <0>         0.0551
     57 H32        -1.4449    7.5338    0.1986 H         1 <0>         0.0595
     58 H33        -1.3486    7.0470    1.9080 H         1 <0>         0.0544
     59 H34        -0.9151    4.1162   -1.1787 H         1 <0>         0.0722
     60 H35        -1.1918    5.8224   -1.6039 H         1 <0>         0.0536
     61 H36         0.3677    5.3201   -0.9081 H         1 <0>         0.0478
@<TRIPOS>BOND
     1    1    2 1
     2    1   27 1
     3    1   28 1
     4    1   29 1
     5    2    3 1
     6    2   30 1
     7    2   31 1
     8    3    4 1
     9    3   32 1
    10    3   33 1
    11    4    5 1
    12    4   34 1
    13    4   35 1
    14    5    6 1
    15    5    7 1
    16    5    9 1
    17    7    8 1
    18    7   36 1
    19    7   37 1
    20    8   38 1
    21    8   39 1
    22    8   40 1
    23    9   10 2
    24    9   11 am
    25   11   16 1
    26   11   12 1
    27   12   13 1
    28   12   41 1
    29   12   42 1
    30   13   14 1
    31   13   43 1
    32   13   44 1
    33   14   20 1
    34   14   15 1
    35   14   17 1
    36   15   16 1
    37   15   45 1
    38   15   46 1
    39   16   47 1
    40   16   48 1
    41   17   18 1
    42   17   21 am
    43   18   19 1
    44   18   49 1
    45   18   50 1
    46   19   20 1
    47   19   51 1
    48   19   52 1
    49   21   22 2
    50   21   23 1
    51   23   24 1
    52   23   53 1
    53   23   54 1
    54   24   25 1
    55   24   26 1
    56   24   55 1
    57   25   56 1
    58   25   57 1
    59   25   58 1
    60   26   59 1
    61   26   60 1
    62   26   61 1
@<TRIPOS>MOLECULE
ZINC35306604
   50    52     0     0     0
SMALL
USER_CHARGES

@<TRIPOS>ATOM
      1 C1          2.2997    0.5921    4.7650 C.3       1 <0>        -0.1243
      2 C2          2.5933    0.4030    3.2990 C.ar      1 <0>        -0.0616
      3 C3          3.5223    1.2112    2.6702 C.ar      1 <0>        -0.1217
      4 C4          3.7915    1.0378    1.3257 C.ar      1 <0>        -0.1044
      5 C5          3.1321    0.0559    0.6097 C.ar      1 <0>        -0.1267
      6 C6          2.2041   -0.7525    1.2385 C.ar      1 <0>        -0.0977
      7 C7          1.9379   -0.5819    2.5844 C.ar      1 <0>        -0.1099
      8 C8          0.9299   -1.4669    3.2713 C.3       1 <0>         0.1033
      9 N1         -0.3180   -0.7249    3.4672 N.pl3     1 <0>        -0.4285
     10 C9         -0.5844    0.5227    2.9861 C.2       1 <0>         0.0008
     11 C10        -1.8298    0.8664    3.3722 C.2       1 <0>        -0.2077
     12 C11        -2.3516   -0.2083    4.1191 C.2       1 <0>        -0.1556
     13 C12        -1.4072   -1.1702    4.1559 C.2       1 <0>        -0.0153
     14 C13        -1.5326   -2.5054    4.8434 C.3       1 <0>         0.1945
     15 N2         -1.7340   -3.5541    3.8404 N.am      1 <0>        -0.6096
     16 C14        -0.6090   -4.3946    3.4233 C.3       1 <0>         0.1193
     17 C15        -0.2049   -4.0318    2.0175 C.2       1 <0>        -0.2020
     18 C16         1.0510   -3.7823    1.7408 C.2       1 <0>        -0.1569
     19 C17        -2.9544   -3.7455    3.3014 C.2       1 <0>         0.5643
     20 O1         -3.7863   -2.8604    3.3507 O.2       1 <0>        -0.4938
     21 C18        -3.2810   -5.0306    2.6508 C.ar      1 <0>        -0.1705
     22 C19        -2.2896   -5.7490    1.9789 C.ar      1 <0>        -0.1073
     23 C20        -2.6010   -6.9480    1.3742 C.ar      1 <0>        -0.1388
     24 C21        -3.8932   -7.4420    1.4304 C.ar      1 <0>        -0.0667
     25 C22        -4.8814   -6.7383    2.0924 C.ar      1 <0>        -0.1624
     26 C23        -4.5831   -5.5368    2.7094 C.ar      1 <0>         0.1538
     27 F1         -5.5479   -4.8518    3.3613 F         1 <0>        -0.1198
     28 H1          2.9018   -0.1042    5.3488 H         1 <0>         0.0709
     29 H2          2.5425    1.6143    5.0553 H         1 <0>         0.0693
     30 H3          1.2426    0.4029    4.9512 H         1 <0>         0.0733
     31 H4          4.0373    1.9781    3.2296 H         1 <0>         0.1248
     32 H5          4.5166    1.6695    0.8343 H         1 <0>         0.1249
     33 H6          3.3419   -0.0791   -0.4411 H         1 <0>         0.1249
     34 H7          1.6888   -1.5193    0.6791 H         1 <0>         0.1222
     35 H8          0.7375   -2.3450    2.6548 H         1 <0>         0.1232
     36 H9          1.3216   -1.7809    4.2387 H         1 <0>         0.0804
     37 H10         0.0866    1.1309    2.3976 H         1 <0>         0.1529
     38 H11        -2.3346    1.7950    3.1498 H         1 <0>         0.1313
     39 H12        -3.3298   -0.2550    4.5744 H         1 <0>         0.1329
     40 H13        -0.6221   -2.7112    5.4063 H         1 <0>         0.0851
     41 H14        -2.3838   -2.4852    5.5239 H         1 <0>         0.0990
     42 H15         0.2333   -4.2344    4.0963 H         1 <0>         0.0916
     43 H16        -0.9065   -5.4427    3.4568 H         1 <0>         0.1001
     44 H17        -0.9507   -3.9775    1.2383 H         1 <0>         0.1258
     45 H18         1.8092   -3.9251    2.4965 H         1 <0>         0.1092
     46 H19         1.3281   -3.4338    0.7568 H         1 <0>         0.1114
     47 H20        -1.2810   -5.3657    1.9329 H         1 <0>         0.1758
     48 H21        -1.8344   -7.5038    0.8545 H         1 <0>         0.1357
     49 H22        -4.1303   -8.3819    0.9541 H         1 <0>         0.1378
     50 H23        -5.8874   -7.1293    2.1317 H         1 <0>         0.1430
@<TRIPOS>BOND
     1    1    2 1
     2    1   28 1
     3    1   29 1
     4    1   30 1
     5    2    7 ar
     6    2    3 ar
     7    3    4 ar
     8    3   31 1
     9    4    5 ar
    10    4   32 1
    11    5    6 ar
    12    5   33 1
    13    6    7 ar
    14    6   34 1
    15    7    8 1
    16    8    9 1
    17    8   35 1
    18    8   36 1
    19    9   13 1
    20    9   10 1
    21   10   11 2
    22   10   37 1
    23   11   12 1
    24   11   38 1
    25   12   13 2
    26   12   39 1
    27   13   14 1
    28   14   15 1
    29   14   40 1
    30   14   41 1
    31   15   16 1
    32   15   19 am
    33   16   17 1
    34   16   42 1
    35   16   43 1
    36   17   18 2
    37   17   44 1
    38   18   45 1
    39   18   46 1
    40   19   20 2
    41   19   21 1
    42   21   26 ar
    43   21   22 ar
    44   22   23 ar
    45   22   47 1
    46   23   24 ar
    47   23   48 1
    48   24   25 ar
    49   24   49 1
    50   25   26 ar
    51   25   50 1
    52   26   27 1
@<TRIPOS>MOLECULE
ZINC04590826
   50    52     0     0     0
SMALL
USER_CHARGES

@<TRIPOS>ATOM
      1 C1         -4.1687   -5.1193    3.8738 C.3       1 <0>        -0.1176
      2 C2         -3.5039   -3.8725    4.3980 C.ar      1 <0>        -0.0821
      3 C3         -3.9439   -3.2976    5.5758 C.ar      1 <0>        -0.1134
      4 C4         -3.3342   -2.1542    6.0566 C.ar      1 <0>        -0.1134
      5 C5         -2.2840   -1.5856    5.3599 C.ar      1 <0>        -0.1118
      6 C6         -1.8436   -2.1609    4.1829 C.ar      1 <0>        -0.1094
      7 C7         -2.4507   -3.3071    3.7042 C.ar      1 <0>        -0.1001
      8 C8         -0.6992   -1.5409    3.4233 C.3       1 <0>         0.1274
      9 N1          0.4859   -2.3937    3.5439 N.pl3     1 <0>        -0.4303
     10 C9          0.7149   -3.5395    2.8414 C.2       1 <0>        -0.0094
     11 C10         1.9064   -4.0396    3.2270 C.2       1 <0>        -0.2015
     12 C11         2.4323   -3.1706    4.2034 C.2       1 <0>        -0.1592
     13 C12         1.5448   -2.1695    4.3730 C.2       1 <0>        -0.0066
     14 C13         1.6956   -1.0060    5.3187 C.3       1 <0>         0.1930
     15 N2          2.0719    0.1916    4.5635 N.am      1 <0>        -0.6089
     16 C14         1.0505    1.1735    4.1907 C.3       1 <0>         0.1203
     17 C15         0.6558    0.9657    2.7512 C.2       1 <0>        -0.2054
     18 C16        -0.6038    0.7920    2.4359 C.2       1 <0>        -0.1601
     19 C17         3.3577    0.3901    4.2118 C.2       1 <0>         0.5657
     20 O1          4.1340   -0.5453    4.1926 O.2       1 <0>        -0.4953
     21 C18         3.8237    1.7440    3.8497 C.ar      1 <0>        -0.1683
     22 C19         3.0282    2.5703    3.0529 C.ar      1 <0>        -0.0920
     23 C20         3.4688    3.8331    2.7189 C.ar      1 <0>        -0.1370
     24 C21         4.6973    4.2846    3.1705 C.ar      1 <0>        -0.0677
     25 C22         5.4920    3.4744    3.9591 C.ar      1 <0>        -0.1601
     26 C23         5.0609    2.2071    4.3078 C.ar      1 <0>         0.1508
     27 F1          5.8354    1.4173    5.0834 F         1 <0>        -0.1220
     28 H1         -3.6140   -5.9954    4.2096 H         1 <0>         0.0727
     29 H2         -5.1910   -5.1709    4.2485 H         1 <0>         0.0678
     30 H3         -4.1820   -5.0932    2.7842 H         1 <0>         0.0676
     31 H4         -4.7643   -3.7417    6.1200 H         1 <0>         0.1239
     32 H5         -3.6784   -1.7046    6.9763 H         1 <0>         0.1252
     33 H6         -1.8081   -0.6917    5.7352 H         1 <0>         0.1184
     34 H7         -2.1041   -3.7588    2.7865 H         1 <0>         0.1198
     35 H8         -0.9712   -1.4434    2.3723 H         1 <0>         0.0950
     36 H9         -0.4812   -0.5556    3.8351 H         1 <0>         0.1140
     37 H10         0.0555   -3.9723    2.1035 H         1 <0>         0.1550
     38 H11         2.3719   -4.9405    2.8557 H         1 <0>         0.1327
     39 H12         3.3751   -3.2831    4.7181 H         1 <0>         0.1338
     40 H13         0.7501   -0.8299    5.8317 H         1 <0>         0.0844
     41 H14         2.4701   -1.2316    6.0518 H         1 <0>         0.0998
     42 H15         0.1759    1.0482    4.8290 H         1 <0>         0.0880
     43 H16         1.4507    2.1795    4.3161 H         1 <0>         0.1006
     44 H17         1.4114    0.9601    1.9795 H         1 <0>         0.1217
     45 H18        -1.3681    0.8878    3.1929 H         1 <0>         0.1058
     46 H19        -0.8779    0.5529    1.4190 H         1 <0>         0.1092
     47 H20         2.0698    2.2204    2.6987 H         1 <0>         0.1609
     48 H21         2.8538    4.4722    2.1027 H         1 <0>         0.1363
     49 H22         5.0365    5.2750    2.9048 H         1 <0>         0.1384
     50 H23         6.4495    3.8328    4.3072 H         1 <0>         0.1433
@<TRIPOS>BOND
     1    1    2 1
     2    1   28 1
     3    1   29 1
     4    1   30 1
     5    2    7 ar
     6    2    3 ar
     7    3    4 ar
     8    3   31 1
     9    4    5 ar
    10    4   32 1
    11    5    6 ar
    12    5   33 1
    13    6    7 ar
    14    6    8 1
    15    7   34 1
    16    8    9 1
    17    8   35 1
    18    8   36 1
    19    9   13 1
    20    9   10 1
    21   10   11 2
    22   10   37 1
    23   11   12 1
    24   11   38 1
    25   12   13 2
    26   12   39 1
    27   13   14 1
    28   14   15 1
    29   14   40 1
    30   14   41 1
    31   15   16 1
    32   15   19 am
    33   16   17 1
    34   16   42 1
    35   16   43 1
    36   17   18 2
    37   17   44 1
    38   18   45 1
    39   18   46 1
    40   19   20 2
    41   19   21 1
    42   21   26 ar
    43   21   22 ar
    44   22   23 ar
    45   22   47 1
    46   23   24 ar
    47   23   48 1
    48   24   25 ar
    49   24   49 1
    50   25   26 ar
    51   25   50 1
    52   26   27 1
@<TRIPOS>MOLECULE
ZINC60452891
   47    48     0     0     0
SMALL
USER_CHARGES

@<TRIPOS>ATOM
      1 C1         -0.1281    1.5436    0.5595 C.3       1 <0>        -0.0662
      2 C2         -0.0925    0.0429    0.4266 C.2       1 <0>         0.0623
      3 N1         -1.0977   -0.7966    0.4107 N.2       1 <0>        -0.5168
      4 C3         -0.9053   -2.0946    0.2865 C.2       1 <0>         0.0533
      5 C4          0.3798   -2.5184    0.1764 C.2       1 <0>        -0.2037
      6 S1          1.2481   -0.9602    0.2553 S.3       1 <0>         0.1126
      7 C5         -2.0590   -3.0640    0.2682 C.3       1 <0>         0.1375
      8 O1         -1.5603   -4.3954    0.1242 O.3       1 <0>        -0.3056
      9 C6         -2.4760   -5.3956    0.0896 C.ar      1 <0>         0.1666
     10 C7         -3.8317   -5.0975    0.1870 C.ar      1 <0>        -0.2118
     11 C8         -4.7585   -6.0998    0.1524 C.ar      1 <0>        -0.0423
     12 C9         -4.3411   -7.4329    0.0183 C.ar      1 <0>        -0.1545
     13 C10        -2.9724   -7.7269   -0.0795 C.ar      1 <0>        -0.0334
     14 C11        -2.0558   -6.7150   -0.0489 C.ar      1 <0>        -0.1557
     15 C12        -5.3285   -8.5115   -0.0190 C.2       1 <0>         0.0849
     16 C13        -6.5936   -8.2733   -0.5230 C.2       1 <0>        -0.1699
     17 C14        -6.8933   -7.0169   -1.1412 C.1       1 <0>         0.2546
     18 N2         -7.1310   -6.0201   -1.6315 N.1       1 <0>        -0.4117
     19 C15        -7.6259   -9.3046   -0.4248 C.2       1 <0>         0.4115
     20 O2         -7.3719  -10.3696    0.0992 O.2       1 <0>        -0.4366
     21 C16        -9.0050   -9.0450   -0.9742 C.3       1 <0>        -0.1582
     22 C17        -9.8852  -10.2751   -0.7446 C.3       1 <0>        -0.0571
     23 C18        -9.9794  -10.5622    0.7552 C.3       1 <0>        -0.1548
     24 C19       -11.2854  -10.0116   -1.3024 C.3       1 <0>        -0.1441
     25 C20        -9.2712  -11.4818   -1.4573 C.3       1 <0>        -0.1547
     26 H1          0.8887    1.9352    0.5304 H         1 <0>         0.0873
     27 H2         -0.7045    1.9676   -0.2628 H         1 <0>         0.0929
     28 H3         -0.5944    1.8135    1.5071 H         1 <0>         0.0930
     29 H4          0.7688   -3.5200    0.0674 H         1 <0>         0.2016
     30 H5         -2.6159   -2.9836    1.2017 H         1 <0>         0.0866
     31 H6         -2.7170   -2.8299   -0.5687 H         1 <0>         0.0863
     32 H7         -4.1516   -4.0711    0.2906 H         1 <0>         0.1361
     33 H8         -5.8104   -5.8671    0.2285 H         1 <0>         0.1313
     34 H9         -2.6448   -8.7508   -0.1826 H         1 <0>         0.1438
     35 H10        -1.0024   -6.9395   -0.1281 H         1 <0>         0.1416
     36 H11        -5.0691   -9.4938    0.3471 H         1 <0>         0.1635
     37 H12        -9.4424   -8.1853   -0.4665 H         1 <0>         0.0984
     38 H13        -8.9379   -8.8405   -2.0427 H         1 <0>         0.0991
     39 H14       -10.4169   -9.7026    1.2629 H         1 <0>         0.0486
     40 H15       -10.6066  -11.4386    0.9188 H         1 <0>         0.0547
     41 H16        -8.9820  -10.7500    1.1526 H         1 <0>         0.0782
     42 H17       -11.2183   -9.8071   -2.3709 H         1 <0>         0.0550
     43 H18       -11.9125  -10.8880   -1.1389 H         1 <0>         0.0592
     44 H19       -11.7228   -9.1520   -0.7947 H         1 <0>         0.0549
     45 H20        -8.2737  -11.6696   -1.0599 H         1 <0>         0.0781
     46 H21        -9.8983  -12.3582   -1.2937 H         1 <0>         0.0547
     47 H22        -9.2041  -11.2773   -2.5258 H         1 <0>         0.0488
@<TRIPOS>BOND
     1    1    2 1
     2    1   26 1
     3    1   27 1
     4    1   28 1
     5    2    6 1
     6    2    3 2
     7    3    4 1
     8    4    5 2
     9    4    7 1
    10    5    6 1
    11    5   29 1
    12    7    8 1
    13    7   30 1
    14    7   31 1
    15    8    9 1
    16    9   14 ar
    17    9   10 ar
    18   10   11 ar
    19   10   32 1
    20   11   12 ar
    21   11   33 1
    22   12   13 ar
    23   12   15 1
    24   13   14 ar
    25   13   34 1
    26   14   35 1
    27   15   16 2
    28   15   36 1
    29   16   17 1
    30   16   19 1
    31   17   18 3
    32   19   20 2
    33   19   21 1
    34   21   22 1
    35   21   37 1
    36   21   38 1
    37   22   23 1
    38   22   24 1
    39   22   25 1
    40   23   39 1
    41   23   40 1
    42   23   41 1
    43   24   42 1
    44   24   43 1
    45   24   44 1
    46   25   45 1
    47   25   46 1
    48   25   47 1
@<TRIPOS>MOLECULE
ZINC66757940
   34    34     0     0     0
SMALL
USER_CHARGES

@<TRIPOS>ATOM
      1 C1         -0.0187    1.5258    0.0104 C.3       1 <0>        -0.1526
      2 C2          0.0021   -0.0041    0.0020 C.3       1 <0>        -0.0583
      3 H1          0.5123   -0.3556   -0.8948 H         1 <0>         0.1274
      4 C3          0.7421   -0.5109    1.2415 C.3       1 <0>        -0.0804
      5 S1          2.4825   -0.0069    1.1550 S.3       1 <0>        -0.2438
      6 C4          3.2094   -0.6763    2.6762 C.3       1 <0>        -0.1218
      7 C5         -1.4117   -0.5257    0.0127 C.2       1 <0>         0.4686
      8 O1         -1.7888   -1.2305    0.9188 O.2       1 <0>        -0.4663
      9 O2         -2.2526   -0.2071   -0.9848 O.3       1 <0>        -0.2822
     10 C6         -3.5167   -0.6991   -0.9344 C.ar      1 <0>         0.1522
     11 C7         -3.8102   -1.9257   -1.5120 C.ar      1 <0>        -0.0287
     12 C8         -5.0976   -2.4262   -1.4609 C.ar      1 <0>        -0.0542
     13 C9         -6.1039   -1.7092   -0.8339 C.ar      1 <0>        -0.0185
     14 C10        -5.8297   -0.4869   -0.2533 C.ar      1 <0>         0.0149
     15 C11        -4.5295    0.0274   -0.2934 C.ar      1 <0>        -0.0795
     16 C12        -4.2277    1.3288    0.3290 C.2       1 <0>         0.5143
     17 O3         -4.3284    2.3508   -0.3205 O.2       1 <0>        -0.4618
     18 O4         -3.8401    1.3853    1.6184 O.3       1 <0>        -0.3349
     19 C13        -3.5639    2.6799    2.1566 C.3       1 <0>         0.0283
     20 Cl1        -7.0948    0.4071    0.5303 Cl        1 <0>        -0.0051
     21 Cl2        -7.7163   -2.3502   -0.7787 Cl        1 <0>        -0.0085
     22 Cl3        -2.5584   -2.8336   -2.3011 Cl        1 <0>        -0.0131
     23 H2          1.0039    1.9031    0.0027 H         1 <0>         0.0915
     24 H3         -0.5459    1.8868   -0.8726 H         1 <0>         0.0757
     25 H4         -0.5289    1.8773    0.9072 H         1 <0>         0.0638
     26 H5          0.2852   -0.0874    2.1360 H         1 <0>         0.0941
     27 H6          0.6803   -1.5984    1.2822 H         1 <0>         0.0952
     28 H7          3.0958   -1.7603    2.6867 H         1 <0>         0.0791
     29 H8          4.2685   -0.4215    2.7155 H         1 <0>         0.1065
     30 H9          2.7007   -0.2493    3.5405 H         1 <0>         0.0794
     31 H10        -5.3205   -3.3815   -1.9126 H         1 <0>         0.1734
     32 H11        -3.2632    2.5831    3.1998 H         1 <0>         0.1106
     33 H12        -2.7589    3.1456    1.5881 H         1 <0>         0.0662
     34 H13        -4.4591    3.2986    2.0925 H         1 <0>         0.0684
@<TRIPOS>BOND
     1    1    2 1
     2    1   23 1
     3    1   24 1
     4    1   25 1
     5    2    3 1
     6    2    4 1
     7    2    7 1
     8    4    5 1
     9    4   26 1
    10    4   27 1
    11    5    6 1
    12    6   28 1
    13    6   29 1
    14    6   30 1
    15    7    8 2
    16    7    9 1
    17    9   10 1
    18   10   15 ar
    19   10   11 ar
    20   11   12 ar
    21   11   22 1
    22   12   13 ar
    23   12   31 1
    24   13   14 ar
    25   13   21 1
    26   14   15 ar
    27   14   20 1
    28   15   16 1
    29   16   17 2
    30   16   18 1
    31   18   19 1
    32   19   32 1
    33   19   33 1
    34   19   34 1
@<TRIPOS>MOLECULE
ZINC01608437
   41    43     0     0     0
SMALL
USER_CHARGES
2,5-bis[4-(2,2,2-trifluoroethoxy)phenyl]-1,3,4-oxadiazole
@<TRIPOS>ATOM
      1 C1         -2.4903    1.6255    0.0174 C.ar      1 <0>        -0.0384
      2 C2         -3.6094    2.4295    0.0327 C.ar      1 <0>        -0.2086
      3 C3         -3.4738    3.8119    0.0395 C.ar      1 <0>         0.1546
      4 C4         -2.2107    4.3898    0.0368 C.ar      1 <0>        -0.1412
      5 C5         -1.0864    3.5930    0.0269 C.ar      1 <0>        -0.0222
      6 C6         -1.2182    2.2025    0.0200 C.ar      1 <0>        -0.0608
      7 C7         -0.0162    1.3448    0.0094 C.2       1 <0>         0.2160
      8 N1          1.2318    1.7553   -0.0003 N.2       1 <0>        -0.2701
      9 N2          2.0169    0.7362   -0.0132 N.2       1 <0>        -0.2701
     10 C8          1.3016   -0.3659   -0.0123 C.2       1 <0>         0.2160
     11 O1          0.0021   -0.0041    0.0020 O.3       1 <0>        -0.2177
     12 C9          1.8242   -1.7469   -0.0240 C.ar      1 <0>        -0.0608
     13 C10         0.9419   -2.8297   -0.0148 C.ar      1 <0>        -0.0384
     14 C11         1.4337   -4.1169   -0.0312 C.ar      1 <0>        -0.2086
     15 C12         2.8048   -4.3384   -0.0455 C.ar      1 <0>         0.1546
     16 C13         3.6858   -3.2646   -0.0494 C.ar      1 <0>        -0.1412
     17 C14         3.2023   -1.9742   -0.0385 C.ar      1 <0>        -0.0222
     18 O2          3.2856   -5.6089   -0.0554 O.3       1 <0>        -0.2942
     19 C15         2.3244   -6.6663   -0.0507 C.3       1 <0>         0.0103
     20 C16         3.0487   -8.0139   -0.0632 C.3       1 <0>         0.4662
     21 F1          3.8611   -8.1172    1.0710 F         1 <0>        -0.1713
     22 F2          2.1076   -9.0491   -0.0587 F         1 <0>        -0.1692
     23 F3          3.8395   -8.1076   -1.2135 F         1 <0>        -0.1713
     24 O3         -4.5795    4.6008    0.0484 O.3       1 <0>        -0.2941
     25 C17        -5.8471    3.9412    0.0507 C.3       1 <0>         0.0103
     26 C18        -6.9654    4.9853    0.0609 C.3       1 <0>         0.4662
     27 F4         -6.8612    5.7914   -1.0778 F         1 <0>        -0.1714
     28 F5         -8.2064    4.3395    0.0631 F         1 <0>        -0.1692
     29 F6         -6.8511    5.7798    1.2067 F         1 <0>        -0.1713
     30 H1         -2.5966    0.5508    0.0075 H         1 <0>         0.1385
     31 H2         -4.5933    1.9842    0.0351 H         1 <0>         0.1404
     32 H3         -2.1096    5.4650    0.0422 H         1 <0>         0.1493
     33 H4         -0.1046    4.0431    0.0241 H         1 <0>         0.1526
     34 H5         -0.1243   -2.6583    0.0009 H         1 <0>         0.1385
     35 H6          0.7521   -4.9547   -0.0286 H         1 <0>         0.1404
     36 H7          4.7512   -3.4411   -0.0606 H         1 <0>         0.1494
     37 H8          3.8880   -1.1397   -0.0408 H         1 <0>         0.1526
     38 H9          1.7082   -6.5932    0.8454 H         1 <0>         0.1141
     39 H10         1.6914   -6.5858   -0.9344 H         1 <0>         0.1141
     40 H11        -5.9362    3.3221   -0.8421 H         1 <0>         0.1141
     41 H12        -5.9283    3.3131    0.9378 H         1 <0>         0.1141
@<TRIPOS>BOND
     1    1    6 ar
     2    1    2 ar
     3    1   30 1
     4    2    3 ar
     5    2   31 1
     6    3    4 ar
     7    3   24 1
     8    4    5 ar
     9    4   32 1
    10    5    6 ar
    11    5   33 1
    12    6    7 1
    13    7   11 1
    14    7    8 2
    15    8    9 1
    16    9   10 2
    17   10   11 1
    18   10   12 1
    19   12   17 ar
    20   12   13 ar
    21   13   14 ar
    22   13   34 1
    23   14   15 ar
    24   14   35 1
    25   15   16 ar
    26   15   18 1
    27   16   17 ar
    28   16   36 1
    29   17   37 1
    30   18   19 1
    31   19   20 1
    32   19   38 1
    33   19   39 1
    34   20   21 1
    35   20   22 1
    36   20   23 1
    37   24   25 1
    38   25   26 1
    39   25   40 1
    40   25   41 1
    41   26   27 1
    42   26   28 1
    43   26   29 1
@<TRIPOS>MOLECULE
ZINC12632175
   59    63     0     0     0
SMALL
USER_CHARGES
N,N-dibenzyl-2-(1-phenylbenzimidazol-2-yl)sulfanyl-acetamide
@<TRIPOS>ATOM
      1 C1         -0.8953    1.3663    0.3673 C.ar      1 <0>        -0.1129
      2 C2         -1.9264    2.2740    0.2128 C.ar      1 <0>        -0.1185
      3 C3         -1.6505    3.6262    0.1326 C.ar      1 <0>        -0.1040
      4 C4         -0.3429    4.0699    0.1967 C.ar      1 <0>        -0.1123
      5 C5          0.6886    3.1617    0.3455 C.ar      1 <0>        -0.1085
      6 C6          0.4124    1.8099    0.4310 C.ar      1 <0>        -0.1160
      7 C7         -0.0418    5.5436    0.1040 C.3       1 <0>         0.1440
      8 N1          0.0413    5.9373   -1.3046 N.am      1 <0>        -0.5938
      9 C8         -1.1780    6.2709   -2.0451 C.3       1 <0>         0.1574
     10 C9         -1.4598    7.7452   -1.9108 C.ar      1 <0>        -0.1115
     11 C10        -2.2473    8.2066   -0.8726 C.ar      1 <0>        -0.1071
     12 C11        -2.5018    9.5595   -0.7466 C.ar      1 <0>        -0.1241
     13 C12        -1.9770   10.4499   -1.6646 C.ar      1 <0>        -0.1142
     14 C13        -1.1942    9.9879   -2.7061 C.ar      1 <0>        -0.1226
     15 C14        -0.9354    8.6356   -2.8290 C.ar      1 <0>        -0.0930
     16 C15         1.2394    5.9927   -1.9194 C.2       1 <0>         0.5388
     17 O1          1.3188    6.4054   -3.0570 O.2       1 <0>        -0.5166
     18 C16         2.4805    5.5419   -1.1930 C.3       1 <0>        -0.1533
     19 S1          3.9176    5.7363   -2.2761 S.3       1 <0>         0.0840
     20 C17         5.1891    5.1527   -1.2051 C.2       1 <0>         0.2531
     21 N2          5.0056    4.7288    0.0213 N.2       1 <0>        -0.4922
     22 C18         6.1956    4.3501    0.5574 C.ar      1 <0>         0.0593
     23 C19         6.5658    3.8334    1.8015 C.ar      1 <0>        -0.0669
     24 C20         7.8882    3.5465    2.0569 C.ar      1 <0>        -0.1221
     25 C21         8.8560    3.7666    1.0881 C.ar      1 <0>        -0.0998
     26 C22         8.5066    4.2764   -0.1456 C.ar      1 <0>        -0.1053
     27 C23         7.1801    4.5709   -0.4200 C.ar      1 <0>         0.0592
     28 N3          6.5175    5.0796   -1.5273 N.pl3     1 <0>        -0.4301
     29 C24         7.0990    5.4493   -2.7472 C.ar      1 <0>         0.1100
     30 C25         7.7031    4.4901   -3.5490 C.ar      1 <0>        -0.1039
     31 C26         8.2708    4.8569   -4.7535 C.ar      1 <0>        -0.1057
     32 C27         8.2480    6.1797   -5.1558 C.ar      1 <0>        -0.1043
     33 C28         7.6517    7.1381   -4.3571 C.ar      1 <0>        -0.1033
     34 C29         7.0773    6.7766   -3.1542 C.ar      1 <0>        -0.1023
     35 H1         -1.1111    0.3102    0.4337 H         1 <0>         0.1230
     36 H2         -2.9477    1.9271    0.1585 H         1 <0>         0.1238
     37 H3         -2.4564    4.3358    0.0160 H         1 <0>         0.1214
     38 H4          1.7103    3.5083    0.3952 H         1 <0>         0.1247
     39 H5          1.2182    1.1004    0.5472 H         1 <0>         0.1236
     40 H6         -0.8358    6.1081    0.5929 H         1 <0>         0.0940
     41 H7          0.9082    5.7520    0.5961 H         1 <0>         0.0931
     42 H8         -1.0438    6.0211   -3.0975 H         1 <0>         0.0948
     43 H9         -2.0156    5.7026   -1.6407 H         1 <0>         0.0892
     44 H10        -2.6606    7.5106   -0.1577 H         1 <0>         0.1195
     45 H11        -3.1137    9.9204    0.0669 H         1 <0>         0.1221
     46 H12        -2.1789   11.5065   -1.5683 H         1 <0>         0.1214
     47 H13        -0.7845   10.6836   -3.4235 H         1 <0>         0.1222
     48 H14        -0.3238    8.2747   -3.6427 H         1 <0>         0.1290
     49 H15         2.6167    6.1467   -0.2965 H         1 <0>         0.1264
     50 H16         2.3765    4.4939   -0.9120 H         1 <0>         0.1291
     51 H17         5.8174    3.6599    2.5606 H         1 <0>         0.1312
     52 H18         8.1739    3.1475    3.0190 H         1 <0>         0.1325
     53 H19         9.8898    3.5378    1.3009 H         1 <0>         0.1326
     54 H20         9.2649    4.4458   -0.8957 H         1 <0>         0.1228
     55 H21         7.7254    3.4576   -3.2330 H         1 <0>         0.1287
     56 H22         8.7370    4.1105   -5.3796 H         1 <0>         0.1346
     57 H23         8.6966    6.4647   -6.0960 H         1 <0>         0.1327
     58 H24         7.6355    8.1704   -4.6741 H         1 <0>         0.1356
     59 H25         6.6114    7.5256   -2.5310 H         1 <0>         0.1309
@<TRIPOS>BOND
     1    1    6 ar
     2    1    2 ar
     3    1   35 1
     4    2    3 ar
     5    2   36 1
     6    3    4 ar
     7    3   37 1
     8    4    5 ar
     9    4    7 1
    10    5    6 ar
    11    5   38 1
    12    6   39 1
    13    7    8 1
    14    7   40 1
    15    7   41 1
    16    8    9 1
    17    8   16 am
    18    9   10 1
    19    9   42 1
    20    9   43 1
    21   10   15 ar
    22   10   11 ar
    23   11   12 ar
    24   11   44 1
    25   12   13 ar
    26   12   45 1
    27   13   14 ar
    28   13   46 1
    29   14   15 ar
    30   14   47 1
    31   15   48 1
    32   16   17 2
    33   16   18 1
    34   18   19 1
    35   18   49 1
    36   18   50 1
    37   19   20 1
    38   20   28 1
    39   20   21 2
    40   21   22 1
    41   22   27 ar
    42   22   23 ar
    43   23   24 ar
    44   23   51 1
    45   24   25 ar
    46   24   52 1
    47   25   26 ar
    48   25   53 1
    49   26   27 ar
    50   26   54 1
    51   27   28 1
    52   28   29 1
    53   29   34 ar
    54   29   30 ar
    55   30   31 ar
    56   30   55 1
    57   31   32 ar
    58   31   56 1
    59   32   33 ar
    60   32   57 1
    61   33   34 ar
    62   33   58 1
    63   34   59 1
@<TRIPOS>MOLECULE
ZINC27527898
   54    56     0     0     0
SMALL
USER_CHARGES
(5Z)-5-[[5-chloro-2-[2-(3-ethyl-5-methyl-phenoxy)ethoxy]phenyl]methylene]-3-ethyl-2-thioxo-thiazolidin-4-one
@<TRIPOS>ATOM
      1 C1          0.4225    1.9289    1.9154 C.3       1 <0>        -0.1486
      2 C2          0.7717    1.3781    0.5314 C.3       1 <0>        -0.0886
      3 C3         -0.1224    2.0132   -0.5022 C.ar      1 <0>        -0.0362
      4 C4         -1.3277    1.4204   -0.8311 C.ar      1 <0>        -0.1556
      5 C5         -2.1523    2.0031   -1.7754 C.ar      1 <0>        -0.0421
      6 C6         -1.7690    3.1740   -2.4007 C.ar      1 <0>        -0.2157
      7 C7         -0.5580    3.7677   -2.0764 C.ar      1 <0>         0.1355
      8 C8          0.2654    3.1837   -1.1245 C.ar      1 <0>        -0.1546
      9 O1         -0.1789    4.9197   -2.6897 O.3       1 <0>        -0.3084
     10 C9         -1.0765    5.4642   -3.6592 C.3       1 <0>         0.0577
     11 C10        -0.4835    6.7508   -4.2372 C.3       1 <0>         0.0551
     12 O2          0.7108    6.4427   -4.9588 O.3       1 <0>        -0.2958
     13 C11         1.3656    7.4807   -5.5387 C.ar      1 <0>         0.1821
     14 C12         0.8720    8.7695   -5.4178 C.ar      1 <0>        -0.2009
     15 C13         1.5390    9.8260   -6.0078 C.ar      1 <0>        -0.0360
     16 C14         2.7057    9.6077   -6.7246 C.ar      1 <0>        -0.0715
     17 C15         3.2130    8.3325   -6.8558 C.ar      1 <0>        -0.0448
     18 C16         2.5498    7.2538   -6.2590 C.ar      1 <0>        -0.1201
     19 C17         3.0858    5.8936   -6.3894 C.2       1 <0>         0.1072
     20 C18         3.9865    5.6095   -7.3647 C.2       1 <0>        -0.2540
     21 C19         4.7685    4.3783   -7.5941 C.2       1 <0>         0.5466
     22 O3          4.6688    3.4118   -6.8611 O.2       1 <0>        -0.4546
     23 N1          5.5794    4.3773   -8.6387 N.am      1 <0>        -0.5197
     24 C20         5.6918    5.4528   -9.4444 C.2       1 <0>         0.2695
     25 S1          6.6818    5.6462  -10.8277 S.2       1 <0>        -0.3363
     26 S2          4.5577    6.6262   -8.7196 S.3       1 <0>         0.0691
     27 C21         6.3787    3.1830   -8.9233 C.3       1 <0>         0.0756
     28 C22         7.7186    3.2796   -8.1911 C.3       1 <0>        -0.1680
     29 Cl1         3.5316   10.9461   -7.4597 Cl        1 <0>        -0.0503
     30 C23        -3.4678    1.3576   -2.1272 C.3       1 <0>        -0.1199
     31 H1          1.0751    1.4653    2.6699 H         1 <0>         0.0607
     32 H2         -0.6277    1.6983    2.1475 H         1 <0>         0.0567
     33 H3          0.5690    3.0191    1.9238 H         1 <0>         0.0569
     34 H4          1.8219    1.6087    0.2993 H         1 <0>         0.0753
     35 H5          0.6252    0.2879    0.5229 H         1 <0>         0.0758
     36 H6         -1.6273    0.5030   -0.3464 H         1 <0>         0.1232
     37 H7         -2.4115    3.6265   -3.1415 H         1 <0>         0.1258
     38 H8          1.2086    3.6443   -0.8700 H         1 <0>         0.1291
     39 H9         -1.2287    4.7347   -4.4683 H         1 <0>         0.0786
     40 H10        -2.0414    5.6878   -3.1808 H         1 <0>         0.0909
     41 H11        -1.2121    7.2176   -4.9163 H         1 <0>         0.0949
     42 H12        -0.2479    7.4463   -3.4181 H         1 <0>         0.0849
     43 H13        -0.0363    8.9488   -4.8615 H         1 <0>         0.1485
     44 H14         1.1490   10.8284   -5.9102 H         1 <0>         0.1473
     45 H15         4.1224    8.1667   -7.4143 H         1 <0>         0.1504
     46 H16         2.7577    5.1044   -5.6969 H         1 <0>         0.1746
     47 H17         5.8371    2.2891   -8.5804 H         1 <0>         0.1058
     48 H18         6.5571    3.1107  -10.0063 H         1 <0>         0.1153
     49 H19         8.3187    2.3828   -8.4048 H         1 <0>         0.0863
     50 H20         7.5402    3.3519   -7.1081 H         1 <0>         0.0618
     51 H21         8.2602    4.1735   -8.5340 H         1 <0>         0.0684
     52 H22        -3.9798    1.9614   -2.8909 H         1 <0>         0.0649
     53 H23        -4.0972    1.2940   -1.2273 H         1 <0>         0.0734
     54 H24        -3.2865    0.3463   -2.5201 H         1 <0>         0.0736
@<TRIPOS>BOND
     1    1    2 1
     2    1   31 1
     3    1   32 1
     4    1   33 1
     5    2    3 1
     6    2   34 1
     7    2   35 1
     8    3    8 ar
     9    3    4 ar
    10    4    5 ar
    11    4   36 1
    12    5    6 ar
    13    5   30 1
    14    6    7 ar
    15    6   37 1
    16    7    8 ar
    17    7    9 1
    18    8   38 1
    19    9   10 1
    20   10   11 1
    21   10   39 1
    22   10   40 1
    23   11   12 1
    24   11   41 1
    25   11   42 1
    26   12   13 1
    27   13   18 ar
    28   13   14 ar
    29   14   15 ar
    30   14   43 1
    31   15   16 ar
    32   15   44 1
    33   16   17 ar
    34   16   29 1
    35   17   18 ar
    36   17   45 1
    37   18   19 1
    38   19   20 2
    39   19   46 1
    40   20   26 1
    41   20   21 1
    42   21   22 2
    43   21   23 am
    44   23   24 1
    45   23   27 1
    46   24   25 2
    47   24   26 1
    48   27   28 1
    49   27   47 1
    50   27   48 1
    51   28   49 1
    52   28   50 1
    53   28   51 1
    54   30   52 1
    55   30   53 1
    56   30   54 1
@<TRIPOS>MOLECULE
ZINC35798874
   59    61     0     0     0
SMALL
USER_CHARGES

@<TRIPOS>ATOM
      1 C1          1.4600    2.0089   -0.0223 C.3       1 <0>        -0.0726
      2 C2          1.5677    0.5084   -0.1123 C.2       1 <0>        -0.1330
      3 C3          0.7168   -0.4380    0.3540 C.2       1 <0>        -0.1671
      4 C4          1.0221   -1.7712    0.1538 C.2       1 <0>        -0.1242
      5 C5          2.1634   -2.0927   -0.5029 C.2       1 <0>        -0.1708
      6 S1          2.8454   -0.4837   -0.8677 S.3       1 <0>         0.0284
      7 C6          2.7116   -3.4549   -0.8420 C.3       1 <0>         0.2029
      8 N1          2.2055   -3.8728   -2.1518 N.am      1 <0>        -0.6016
      9 C7          2.9535   -3.5394   -3.3665 C.3       1 <0>         0.1458
     10 C8          4.0226   -4.5759   -3.5984 C.ar      1 <0>        -0.1136
     11 C9          5.2370   -4.4743   -2.9457 C.ar      1 <0>        -0.1042
     12 C10         6.2176   -5.4251   -3.1584 C.ar      1 <0>        -0.1176
     13 C11         5.9838   -6.4777   -4.0235 C.ar      1 <0>        -0.1123
     14 C12         4.7691   -6.5798   -4.6754 C.ar      1 <0>        -0.1138
     15 C13         3.7869   -5.6313   -4.4594 C.ar      1 <0>        -0.1049
     16 C14         1.0517   -4.5638   -2.2392 C.2       1 <0>         0.5066
     17 O1          0.3854   -4.7599   -1.2449 O.2       1 <0>        -0.5180
     18 C15         0.5895   -5.0929   -3.5724 C.3       1 <0>         0.0914
     19 N2         -0.6386   -5.8706   -3.3900 N.am      1 <0>        -0.5853
     20 C16        -1.9434   -5.2101   -3.4757 C.3       1 <0>         0.1113
     21 C17        -2.2261   -4.8405   -4.9091 C.2       1 <0>        -0.1837
     22 C18        -3.4590   -4.8295   -5.3518 C.2       1 <0>        -0.1738
     23 C19        -0.5680   -7.1937   -3.1433 C.2       1 <0>         0.5656
     24 O2          0.5134   -7.7253   -2.9834 O.2       1 <0>        -0.5170
     25 C20        -1.8058   -7.9986   -3.0671 C.ar      1 <0>        -0.0987
     26 C21        -2.9327   -7.6224   -3.7998 C.ar      1 <0>        -0.1140
     27 C22        -4.0844   -8.3781   -3.7246 C.ar      1 <0>        -0.0779
     28 C23        -4.1242   -9.5064   -2.9248 C.ar      1 <0>        -0.1596
     29 C24        -3.0108   -9.8845   -2.1956 C.ar      1 <0>        -0.0748
     30 C25        -1.8508   -9.1411   -2.2667 C.ar      1 <0>        -0.0604
     31 C26        -5.3859  -10.3268   -2.8472 C.3       1 <0>         0.5071
     32 F1         -5.3616  -11.3145   -3.8377 F         1 <0>        -0.1731
     33 F2         -5.4727  -10.9309   -1.5884 F         1 <0>        -0.1740
     34 F3         -6.4948   -9.4967   -3.0435 F         1 <0>        -0.1746
     35 H1          2.3214    2.4649   -0.5102 H         1 <0>         0.0728
     36 H2          0.5460    2.3378   -0.5168 H         1 <0>         0.0811
     37 H3          1.4346    2.3091    1.0253 H         1 <0>         0.0818
     38 H4         -0.1861   -0.1547    0.8745 H         1 <0>         0.1318
     39 H5          0.3613   -2.5451    0.5156 H         1 <0>         0.1347
     40 H6          3.8004   -3.4117   -0.8701 H         1 <0>         0.0930
     41 H7          2.3959   -4.1725   -0.0847 H         1 <0>         0.1059
     42 H8          2.2738   -3.5217   -4.2184 H         1 <0>         0.0900
     43 H9          3.4166   -2.5595   -3.2506 H         1 <0>         0.0927
     44 H10         5.4196   -3.6520   -2.2699 H         1 <0>         0.1206
     45 H11         7.1666   -5.3454   -2.6490 H         1 <0>         0.1239
     46 H12         6.7502   -7.2201   -4.1902 H         1 <0>         0.1233
     47 H13         4.5866   -7.4019   -5.3515 H         1 <0>         0.1240
     48 H14         2.8366   -5.7131   -4.9660 H         1 <0>         0.1197
     49 H15         0.3946   -4.2589   -4.2466 H         1 <0>         0.1111
     50 H16         1.3637   -5.7311   -3.9983 H         1 <0>         0.1203
     51 H17        -2.7179   -5.8873   -3.1156 H         1 <0>         0.1126
     52 H18        -1.9353   -4.3087   -2.8629 H         1 <0>         0.0915
     53 H19        -1.4123   -4.5847   -5.5714 H         1 <0>         0.1183
     54 H20        -4.2748   -5.0624   -4.6835 H         1 <0>         0.1040
     55 H21        -3.6597   -4.5876   -6.3850 H         1 <0>         0.1094
     56 H22        -2.9031   -6.7415   -4.4239 H         1 <0>         0.1618
     57 H23        -4.9570   -8.0881   -4.2911 H         1 <0>         0.1443
     58 H24        -3.0485  -10.7661   -1.5729 H         1 <0>         0.1457
     59 H25        -0.9809   -9.4401   -1.7008 H         1 <0>         0.1471
@<TRIPOS>BOND
     1    1    2 1
     2    1   35 1
     3    1   36 1
     4    1   37 1
     5    2    6 1
     6    2    3 2
     7    3    4 1
     8    3   38 1
     9    4    5 2
    10    4   39 1
    11    5    6 1
    12    5    7 1
    13    7    8 1
    14    7   40 1
    15    7   41 1
    16    8    9 1
    17    8   16 am
    18    9   10 1
    19    9   42 1
    20    9   43 1
    21   10   15 ar
    22   10   11 ar
    23   11   12 ar
    24   11   44 1
    25   12   13 ar
    26   12   45 1
    27   13   14 ar
    28   13   46 1
    29   14   15 ar
    30   14   47 1
    31   15   48 1
    32   16   17 2
    33   16   18 1
    34   18   19 1
    35   18   49 1
    36   18   50 1
    37   19   20 1
    38   19   23 am
    39   20   21 1
    40   20   51 1
    41   20   52 1
    42   21   22 2
    43   21   53 1
    44   22   54 1
    45   22   55 1
    46   23   24 2
    47   23   25 1
    48   25   30 ar
    49   25   26 ar
    50   26   27 ar
    51   26   56 1
    52   27   28 ar
    53   27   57 1
    54   28   29 ar
    55   28   31 1
    56   29   30 ar
    57   29   58 1
    58   30   59 1
    59   31   32 1
    60   31   33 1
    61   31   34 1
@<TRIPOS>MOLECULE
ZINC57614040
   51    54     0     0     0
SMALL
USER_CHARGES

@<TRIPOS>ATOM
      1 C1         -0.2842    1.2168    0.0799 C.ar      1 <0>        -0.1168
      2 C2          0.7884    2.0823    0.1870 C.ar      1 <0>        -0.1200
      3 C3          2.0799    1.5942    0.1184 C.ar      1 <0>        -0.0915
      4 C4          2.2989    0.2406   -0.0569 C.ar      1 <0>        -0.0739
      5 C5          1.2263   -0.6250   -0.1632 C.ar      1 <0>        -0.1136
      6 C6         -0.0652   -0.1368   -0.0959 C.ar      1 <0>        -0.1180
      7 C7          3.7068   -0.2913   -0.1327 C.3       1 <0>         0.0900
      8 N1          4.1715   -0.6409    1.2163 N.3       1 <0>        -0.5208
      9 C8          3.4017   -1.7662    1.7631 C.3       1 <0>         0.0834
     10 C9          3.6637   -1.8823    3.2426 C.ar      1 <0>        -0.0804
     11 C10         4.5053   -2.8694    3.7203 C.ar      1 <0>        -0.1119
     12 C11         4.7457   -2.9759    5.0772 C.ar      1 <0>        -0.1149
     13 C12         4.1446   -2.0955    5.9576 C.ar      1 <0>        -0.1016
     14 C13         3.3030   -1.1083    5.4813 C.ar      1 <0>        -0.1135
     15 C14         3.0665   -0.9975    4.1224 C.ar      1 <0>        -0.0167
     16 Cl1         2.0146    0.2465    3.5227 Cl        1 <0>        -0.0471
     17 C15         5.6102   -0.9374    1.2171 C.3       1 <0>         0.1276
     18 C16         6.3880    0.3473    1.0915 C.2       1 <0>         0.1974
     19 N2          6.8100    0.9012   -0.0189 N.2       1 <0>        -0.2994
     20 N3          7.4324    1.9864    0.2892 N.2       1 <0>        -0.0732
     21 N4          7.4184    2.1391    1.5675 N.2       1 <0>        -0.0892
     22 N5          6.7790    1.1516    2.0974 N.pl3     1 <0>        -0.2896
     23 C17         6.5288    0.9432    3.5257 C.3       1 <0>         0.1598
     24 C18         7.7236    0.2716    4.1522 C.ar      1 <0>        -0.1388
     25 C19         7.7972   -1.1082    4.1943 C.ar      1 <0>        -0.0655
     26 C20         8.8926   -1.7251    4.7682 C.ar      1 <0>        -0.1544
     27 C21         9.9166   -0.9607    5.3012 C.ar      1 <0>         0.1191
     28 C22         9.8419    0.4212    5.2584 C.ar      1 <0>        -0.1539
     29 C23         8.7479    1.0359    4.6793 C.ar      1 <0>        -0.0552
     30 F1         10.9877   -1.5627    5.8628 F         1 <0>        -0.1332
     31 H1         -1.2932    1.5975    0.1380 H         1 <0>         0.1195
     32 H2          0.6173    3.1398    0.3240 H         1 <0>         0.1192
     33 H3          2.9178    2.2705    0.2014 H         1 <0>         0.1159
     34 H4          1.3974   -1.6825   -0.3005 H         1 <0>         0.1181
     35 H5         -0.9031   -0.8130   -0.1793 H         1 <0>         0.1206
     36 H6          3.7263   -1.1789   -0.7651 H         1 <0>         0.0539
     37 H7          4.3609    0.4710   -0.5561 H         1 <0>         0.0943
     38 H8          2.3385   -1.5951    1.5947 H         1 <0>         0.1072
     39 H9          3.7043   -2.6885    1.2671 H         1 <0>         0.0556
     40 H10         4.9749   -3.5576    3.0331 H         1 <0>         0.1306
     41 H11         5.4031   -3.7475    5.4500 H         1 <0>         0.1298
     42 H12         4.3326   -2.1795    7.0178 H         1 <0>         0.1318
     43 H13         2.8333   -0.4208    6.1691 H         1 <0>         0.1335
     44 H14         5.8782   -1.4347    2.1494 H         1 <0>         0.1005
     45 H15         5.8473   -1.5894    0.3764 H         1 <0>         0.0859
     46 H16         6.3579    1.9052    4.0088 H         1 <0>         0.1205
     47 H17         5.6494    0.3118    3.6522 H         1 <0>         0.1223
     48 H18         6.9981   -1.7043    3.7788 H         1 <0>         0.1321
     49 H19         8.9496   -2.8031    4.8013 H         1 <0>         0.1415
     50 H20        10.6399    1.0185    5.6741 H         1 <0>         0.1426
     51 H21         8.6915    2.1138    4.6419 H         1 <0>         0.1404
@<TRIPOS>BOND
     1    1    6 ar
     2    1    2 ar
     3    1   31 1
     4    2    3 ar
     5    2   32 1
     6    3    4 ar
     7    3   33 1
     8    4    5 ar
     9    4    7 1
    10    5    6 ar
    11    5   34 1
    12    6   35 1
    13    7    8 1
    14    7   36 1
    15    7   37 1
    16    8    9 1
    17    8   17 1
    18    9   10 1
    19    9   38 1
    20    9   39 1
    21   10   15 ar
    22   10   11 ar
    23   11   12 ar
    24   11   40 1
    25   12   13 ar
    26   12   41 1
    27   13   14 ar
    28   13   42 1
    29   14   15 ar
    30   14   43 1
    31   15   16 1
    32   17   18 1
    33   17   44 1
    34   17   45 1
    35   18   22 1
    36   18   19 2
    37   19   20 1
    38   20   21 2
    39   21   22 1
    40   22   23 1
    41   23   24 1
    42   23   46 1
    43   23   47 1
    44   24   29 ar
    45   24   25 ar
    46   25   26 ar
    47   25   48 1
    48   26   27 ar
    49   26   49 1
    50   27   28 ar
    51   27   30 1
    52   28   29 ar
    53   28   50 1
    54   29   51 1
@<TRIPOS>MOLECULE
ZINC04928864
   47    49     0     0     0
SMALL
USER_CHARGES
N-[[1-[(3-chlorophenyl)methyl]pyrrol-2-yl]methyl]-N-(2-methoxyethyl)furan-2-carboxamide
@<TRIPOS>ATOM
      1 C1          4.1634    2.1602   -2.4108 C.3       1 <0>         0.0319
      2 O1          3.6754    2.9140   -1.2992 O.3       1 <0>        -0.3923
      3 C2          3.2997    2.1153   -0.1754 C.3       1 <0>         0.0429
      4 C3          2.7952    3.0222    0.9489 C.3       1 <0>         0.1215
      5 N1          1.5648    3.6923    0.5209 N.am      1 <0>        -0.5896
      6 C4          1.6349    4.9875   -0.1600 C.3       1 <0>         0.1847
      7 C5          1.4865    6.0952    0.8509 C.2       1 <0>         0.0042
      8 C6          0.8885    5.9916    2.0551 C.2       1 <0>        -0.1748
      9 C7          0.9695    7.2536    2.6762 C.2       1 <0>        -0.1957
     10 C8          1.6139    8.0804    1.8278 C.2       1 <0>        -0.0089
     11 N2          1.9389    7.3734    0.7082 N.pl3     1 <0>        -0.4361
     12 C9          2.6528    7.9011   -0.4572 C.3       1 <0>         0.1445
     13 C10         1.6569    8.3822   -1.4808 C.ar      1 <0>        -0.0994
     14 C11         1.2019    7.5198   -2.4611 C.ar      1 <0>        -0.0948
     15 C12         0.2848    7.9590   -3.3974 C.ar      1 <0>        -0.1050
     16 C13        -0.1701    9.2638   -3.3605 C.ar      1 <0>        -0.1020
     17 C14         0.2887   10.1286   -2.3832 C.ar      1 <0>        -0.0346
     18 C15         1.2028    9.6869   -1.4430 C.ar      1 <0>        -0.0896
     19 Cl1        -0.2816   11.7676   -2.3366 Cl        1 <0>        -0.0646
     20 C16         0.3683    3.1172    0.7537 C.2       1 <0>         0.6066
     21 O2          0.3131    1.9994    1.2318 O.2       1 <0>        -0.5179
     22 C17        -0.8671    3.8360    0.4251 C.2       1 <0>        -0.0834
     23 C18        -2.1329    3.3284    0.4927 C.2       1 <0>        -0.1173
     24 C19        -3.0016    4.3559    0.0930 C.2       1 <0>        -0.2260
     25 C20        -2.2376    5.4320   -0.1974 C.2       1 <0>        -0.0038
     26 O3         -0.9525    5.1164    0.0088 O.3       1 <0>        -0.1438
     27 H1          4.4270    2.8386   -3.2222 H         1 <0>         0.0858
     28 H2          5.0454    1.5958   -2.1081 H         1 <0>         0.0423
     29 H3          3.3899    1.4711   -2.7502 H         1 <0>         0.0410
     30 H4          4.1637    1.5500    0.1738 H         1 <0>         0.0632
     31 H5          2.5083    1.4253   -0.4683 H         1 <0>         0.0578
     32 H6          3.5541    3.7694    1.1811 H         1 <0>         0.0905
     33 H7          2.5926    2.4224    1.8362 H         1 <0>         0.1039
     34 H8          2.5970    5.0816   -0.6636 H         1 <0>         0.0956
     35 H9          0.8322    5.0558   -0.8943 H         1 <0>         0.0965
     36 H10         0.4318    5.1042    2.4678 H         1 <0>         0.1228
     37 H11         0.5863    7.5115    3.6524 H         1 <0>         0.1328
     38 H12         1.8383    9.1216    2.0065 H         1 <0>         0.1593
     39 H13         3.2873    8.7321   -0.1491 H         1 <0>         0.1022
     40 H14         3.2697    7.1147   -0.8921 H         1 <0>         0.1003
     41 H15         1.5604    6.5015   -2.4930 H         1 <0>         0.1282
     42 H16        -0.0730    7.2838   -4.1606 H         1 <0>         0.1352
     43 H17        -0.8832    9.6082   -4.0948 H         1 <0>         0.1355
     44 H18         1.5617   10.3617   -0.6799 H         1 <0>         0.1330
     45 H19        -2.4116    2.3297    0.7949 H         1 <0>         0.1581
     46 H20        -4.0781    4.2973    0.0291 H         1 <0>         0.1550
     47 H21        -2.6035    6.3903   -0.5356 H         1 <0>         0.2042
@<TRIPOS>BOND
     1    1    2 1
     2    1   27 1
     3    1   28 1
     4    1   29 1
     5    2    3 1
     6    3    4 1
     7    3   30 1
     8    3   31 1
     9    4    5 1
    10    4   32 1
    11    4   33 1
    12    5    6 1
    13    5   20 am
    14    6    7 1
    15    6   34 1
    16    6   35 1
    17    7   11 1
    18    7    8 2
    19    8    9 1
    20    8   36 1
    21    9   10 2
    22    9   37 1
    23   10   11 1
    24   10   38 1
    25   11   12 1
    26   12   13 1
    27   12   39 1
    28   12   40 1
    29   13   18 ar
    30   13   14 ar
    31   14   15 ar
    32   14   41 1
    33   15   16 ar
    34   15   42 1
    35   16   17 ar
    36   16   43 1
    37   17   18 ar
    38   17   19 1
    39   18   44 1
    40   20   21 2
    41   20   22 1
    42   22   26 1
    43   22   23 2
    44   23   24 1
    45   23   45 1
    46   24   25 2
    47   24   46 1
    48   25   26 1
    49   25   47 1
@<TRIPOS>MOLECULE
ZINC14881131
   58    60     0     0     0
SMALL
USER_CHARGES
(E)-3-(3-fluorophenyl)-N-[(4-isobutoxyphenyl)methyl]-N-(4-pyridylmethyl)prop-2-enamide
@<TRIPOS>ATOM
      1 C1         -7.5804   -4.3503   -7.9170 C.3       1 <0>        -0.1475
      2 C2         -6.5767   -5.3384   -7.3191 C.3       1 <0>        -0.0948
      3 C3         -5.3037   -5.3484   -8.1677 C.3       1 <0>        -0.1479
      4 C4         -6.2334   -4.9144   -5.8897 C.3       1 <0>         0.0627
      5 O1         -5.3878   -5.8986   -5.2910 O.3       1 <0>        -0.3128
      6 C5         -4.9879   -5.6729   -4.0120 C.ar      1 <0>         0.1379
      7 C6         -4.1660   -6.5873   -3.3693 C.ar      1 <0>        -0.1561
      8 C7         -3.7605   -6.3552   -2.0693 C.ar      1 <0>        -0.0663
      9 C8         -4.1730   -5.2128   -1.4086 C.ar      1 <0>        -0.1496
     10 C9         -4.9968   -4.3028   -2.0450 C.ar      1 <0>        -0.0519
     11 C10        -5.4005   -4.5274   -3.3469 C.ar      1 <0>        -0.2114
     12 C11        -3.7292   -4.9622    0.0096 C.3       1 <0>         0.1607
     13 N1         -2.4726   -4.2091    0.0021 N.am      1 <0>        -0.5979
     14 C12        -1.1922   -4.9207   -0.0135 C.3       1 <0>         0.1455
     15 C13        -0.7401   -5.1724    1.4019 C.ar      1 <0>        -0.0657
     16 C14         0.0562   -4.2525    2.0668 C.ar      1 <0>        -0.1620
     17 C15         0.4480   -4.5154    3.3658 C.ar      1 <0>         0.1033
     18 N2          0.0810   -5.6294    3.9686 N.ar      1 <0>        -0.4810
     19 C16        -0.6719   -6.5286    3.3656 C.ar      1 <0>         0.1019
     20 C17        -1.1058   -6.3320    2.0682 C.ar      1 <0>        -0.1581
     21 C18        -2.4946   -2.8615    0.0095 C.2       1 <0>         0.5541
     22 O2         -3.5582   -2.2704    0.0225 O.2       1 <0>        -0.5332
     23 C19        -1.2386   -2.1087    0.0021 C.2       1 <0>        -0.2140
     24 C20        -1.2606   -0.7609    0.0095 C.2       1 <0>        -0.0154
     25 C21         0.0021   -0.0041    0.0020 C.ar      1 <0>        -0.0474
     26 C22        -0.0169    1.3943    0.0097 C.ar      1 <0>        -0.1037
     27 C23         1.1692    2.0974    0.0022 C.ar      1 <0>        -0.0897
     28 C24         2.3777    1.4235   -0.0130 C.ar      1 <0>        -0.1422
     29 C25         2.4061    0.0378   -0.0207 C.ar      1 <0>         0.1005
     30 C26         1.2257   -0.6797   -0.0133 C.ar      1 <0>        -0.1407
     31 F1          3.5903   -0.6123   -0.0351 F         1 <0>        -0.1359
     32 H1         -7.1439   -3.3516   -7.9291 H         1 <0>         0.0583
     33 H2         -7.8249   -4.6524   -8.9353 H         1 <0>         0.0662
     34 H3         -8.4873   -4.3432   -7.3124 H         1 <0>         0.0583
     35 H4         -7.0132   -6.3371   -7.3070 H         1 <0>         0.0818
     36 H5         -4.8672   -4.3497   -8.1798 H         1 <0>         0.0541
     37 H6         -4.5886   -6.0523   -7.7418 H         1 <0>         0.0620
     38 H7         -5.5482   -5.6505   -9.1861 H         1 <0>         0.0581
     39 H8         -7.1506   -4.8212   -5.3081 H         1 <0>         0.0626
     40 H9         -5.7167   -3.9549   -5.9094 H         1 <0>         0.0626
     41 H10        -3.8438   -7.4799   -3.8848 H         1 <0>         0.1306
     42 H11        -3.1204   -7.0666   -1.5686 H         1 <0>         0.1266
     43 H12        -5.3216   -3.4135   -1.5252 H         1 <0>         0.1305
     44 H13        -6.0403   -3.8140   -3.8451 H         1 <0>         0.1269
     45 H14        -3.5786   -5.9151    0.5169 H         1 <0>         0.0859
     46 H15        -4.4936   -4.3884    0.5335 H         1 <0>         0.0943
     47 H16        -1.3116   -5.8724   -0.5313 H         1 <0>         0.0974
     48 H17        -0.4470   -4.3165   -0.5309 H         1 <0>         0.0946
     49 H18         0.3638   -3.3404    1.5769 H         1 <0>         0.1322
     50 H19         1.0655   -3.8024    3.8918 H         1 <0>         0.1568
     51 H20        -0.9524   -7.4292    3.8915 H         1 <0>         0.1577
     52 H21        -1.7216   -7.0724    1.5795 H         1 <0>         0.1355
     53 H22        -0.2947   -2.6334   -0.0094 H         1 <0>         0.1306
     54 H23        -2.2045   -0.2362    0.0210 H         1 <0>         0.1426
     55 H24        -0.9589    1.9226    0.0170 H         1 <0>         0.1372
     56 H25         1.1550    3.1773    0.0081 H         1 <0>         0.1392
     57 H26         3.3033    1.9800   -0.0192 H         1 <0>         0.1393
     58 H27         1.2482   -1.7595   -0.0197 H         1 <0>         0.1369
@<TRIPOS>BOND
     1    1    2 1
     2    1   32 1
     3    1   33 1
     4    1   34 1
     5    2    3 1
     6    2    4 1
     7    2   35 1
     8    3   36 1
     9    3   37 1
    10    3   38 1
    11    4    5 1
    12    4   39 1
    13    4   40 1
    14    5    6 1
    15    6   11 ar
    16    6    7 ar
    17    7    8 ar
    18    7   41 1
    19    8    9 ar
    20    8   42 1
    21    9   10 ar
    22    9   12 1
    23   10   11 ar
    24   10   43 1
    25   11   44 1
    26   12   13 1
    27   12   45 1
    28   12   46 1
    29   13   14 1
    30   13   21 am
    31   14   15 1
    32   14   47 1
    33   14   48 1
    34   15   20 ar
    35   15   16 ar
    36   16   17 ar
    37   16   49 1
    38   17   18 ar
    39   17   50 1
    40   18   19 ar
    41   19   20 ar
    42   19   51 1
    43   20   52 1
    44   21   22 2
    45   21   23 1
    46   23   24 2
    47   23   53 1
    48   24   25 1
    49   24   54 1
    50   25   30 ar
    51   25   26 ar
    52   26   27 ar
    53   26   55 1
    54   27   28 ar
    55   27   56 1
    56   28   29 ar
    57   28   57 1
    58   29   30 ar
    59   29   31 1
    60   30   58 1
@<TRIPOS>MOLECULE
ZINC35774859
   58    60     0     0     0
SMALL
USER_CHARGES

@<TRIPOS>ATOM
      1 C1          0.2792    1.9003   -0.7807 C.3       1 <0>        -0.1494
      2 C2          0.2433    0.4410   -0.3224 C.3       1 <0>        -0.1398
      3 C3          0.8634   -0.4480   -1.4023 C.3       1 <0>         0.1181
      4 N1          0.8290   -1.8454   -0.9636 N.am      1 <0>        -0.5868
      5 C4         -0.3703   -2.6553   -1.1913 C.3       1 <0>         0.0833
      6 C5         -0.3429   -3.2107   -2.5919 C.2       1 <0>         0.4986
      7 O1          0.5869   -2.9551   -3.3275 O.2       1 <0>        -0.5111
      8 N2         -1.3516   -3.9915   -3.0271 N.am      1 <0>        -0.5994
      9 C6         -1.3249   -4.5314   -4.3888 C.3       1 <0>         0.1521
     10 C7         -0.5476   -5.8224   -4.4021 C.ar      1 <0>        -0.1107
     11 C8          0.8167   -5.8054   -4.6242 C.ar      1 <0>        -0.0949
     12 C9          1.5298   -6.9896   -4.6364 C.ar      1 <0>        -0.1211
     13 C10         0.8786   -8.1907   -4.4261 C.ar      1 <0>        -0.1136
     14 C11        -0.4855   -8.2076   -4.2031 C.ar      1 <0>        -0.1225
     15 C12        -1.1979   -7.0230   -4.1866 C.ar      1 <0>        -0.1066
     16 C13        -2.4747   -4.3002   -2.1386 C.3       1 <0>         0.1902
     17 C14        -3.5992   -3.3302   -2.3947 C.2       1 <0>        -0.1846
     18 C15        -4.6947   -3.4811   -3.1786 C.2       1 <0>        -0.0958
     19 C16        -5.6060   -2.4453   -3.2634 C.2       1 <0>        -0.1580
     20 C17        -5.3773   -1.3093   -2.5602 C.2       1 <0>        -0.1559
     21 S1         -3.8382   -1.6873   -1.7383 S.3       1 <0>         0.0336
     22 C18        -4.9155   -4.7588   -3.9466 C.3       1 <0>        -0.1074
     23 C19         1.9007   -2.3857   -0.3504 C.2       1 <0>         0.5684
     24 O2          2.8584   -1.6896   -0.0750 O.2       1 <0>        -0.5147
     25 C20         1.9115   -3.8251   -0.0129 C.ar      1 <0>        -0.1038
     26 C21         1.5038   -4.7693   -0.9568 C.ar      1 <0>        -0.1120
     27 C22         1.5162   -6.1111   -0.6370 C.ar      1 <0>        -0.0883
     28 C23         1.9316   -6.5234    0.6165 C.ar      1 <0>        -0.1305
     29 C24         2.3374   -5.5924    1.5590 C.ar      1 <0>         0.0987
     30 C25         2.3348   -4.2456    1.2484 C.ar      1 <0>        -0.1041
     31 F1          2.7410   -6.0020    2.7815 F         1 <0>        -0.1328
     32 H1          1.3126    2.2024   -0.9508 H         1 <0>         0.0582
     33 H2         -0.2869    2.0045   -1.7063 H         1 <0>         0.0556
     34 H3         -0.1626    2.5337   -0.0113 H         1 <0>         0.0590
     35 H4          0.8094    0.3368    0.6032 H         1 <0>         0.0685
     36 H5         -0.7901    0.1389   -0.1523 H         1 <0>         0.0627
     37 H6          0.2973   -0.3438   -2.3279 H         1 <0>         0.0786
     38 H7          1.8967   -0.1459   -1.5724 H         1 <0>         0.0916
     39 H8         -0.3954   -3.4767   -0.4752 H         1 <0>         0.1145
     40 H9         -1.2574   -2.0349   -1.0637 H         1 <0>         0.1084
     41 H10        -2.3446   -4.7178   -4.7257 H         1 <0>         0.0919
     42 H11        -0.8476   -3.8130   -5.0552 H         1 <0>         0.0935
     43 H12         1.3255   -4.8670   -4.7885 H         1 <0>         0.1282
     44 H13         2.5955   -6.9764   -4.8107 H         1 <0>         0.1218
     45 H14         1.4356   -9.1159   -4.4364 H         1 <0>         0.1215
     46 H15        -0.9943   -9.1460   -4.0392 H         1 <0>         0.1222
     47 H16        -2.2631   -7.0359   -4.0087 H         1 <0>         0.1192
     48 H17        -2.8205   -5.3161   -2.3297 H         1 <0>         0.1083
     49 H18        -2.1511   -4.2156   -1.1012 H         1 <0>         0.0966
     50 H19        -6.4870   -2.5395   -3.8811 H         1 <0>         0.1361
     51 H20        -5.9735   -0.4103   -2.5076 H         1 <0>         0.1875
     52 H21        -5.5663   -5.4193   -3.3736 H         1 <0>         0.0741
     53 H22        -5.3822   -4.5307   -4.9048 H         1 <0>         0.0700
     54 H23        -3.9578   -5.2505   -4.1168 H         1 <0>         0.0660
     55 H24         1.1788   -4.4497   -1.9359 H         1 <0>         0.1422
     56 H25         1.2004   -6.8417   -1.3671 H         1 <0>         0.1380
     57 H26         1.9394   -7.5752    0.8615 H         1 <0>         0.1416
     58 H27         2.6553   -3.5203    1.9816 H         1 <0>         0.1451
@<TRIPOS>BOND
     1    1    2 1
     2    1   32 1
     3    1   33 1
     4    1   34 1
     5    2    3 1
     6    2   35 1
     7    2   36 1
     8    3    4 1
     9    3   37 1
    10    3   38 1
    11    4    5 1
    12    4   23 am
    13    5    6 1
    14    5   39 1
    15    5   40 1
    16    6    7 2
    17    6    8 am
    18    8    9 1
    19    8   16 1
    20    9   10 1
    21    9   41 1
    22    9   42 1
    23   10   15 ar
    24   10   11 ar
    25   11   12 ar
    26   11   43 1
    27   12   13 ar
    28   12   44 1
    29   13   14 ar
    30   13   45 1
    31   14   15 ar
    32   14   46 1
    33   15   47 1
    34   16   17 1
    35   16   48 1
    36   16   49 1
    37   17   21 1
    38   17   18 2
    39   18   19 1
    40   18   22 1
    41   19   20 2
    42   19   50 1
    43   20   21 1
    44   20   51 1
    45   22   52 1
    46   22   53 1
    47   22   54 1
    48   23   24 2
    49   23   25 1
    50   25   30 ar
    51   25   26 ar
    52   26   27 ar
    53   26   55 1
    54   27   28 ar
    55   27   56 1
    56   28   29 ar
    57   28   57 1
    58   29   30 ar
    59   29   31 1
    60   30   58 1
@<TRIPOS>MOLECULE
ZINC56106196
   47    48     0     0     0
SMALL
USER_CHARGES

@<TRIPOS>ATOM
      1 C1         -0.0114    1.5239    0.0982 C.3       1 <0>        -0.1693
      2 C2          0.0026   -0.0031    0.0030 C.3       1 <0>         0.1852
      3 H1          0.4786   -0.3046   -0.9301 H         1 <0>         0.1189
      4 C3         -1.4120   -0.5215    0.0356 C.ar      1 <0>        -0.1031
      5 C4         -2.4384    0.2976    0.4667 C.ar      1 <0>        -0.1155
      6 C5         -3.7379   -0.1784    0.4962 C.ar      1 <0>         0.0889
      7 C6         -4.0095   -1.4753    0.0938 C.ar      1 <0>        -0.1188
      8 C7         -2.9835   -2.2941   -0.3371 C.ar      1 <0>        -0.1248
      9 C8         -1.6843   -1.8162   -0.3716 C.ar      1 <0>         0.1050
     10 F1         -0.6818   -2.6152   -0.7978 F         1 <0>        -0.1213
     11 F2         -4.7411    0.6221    0.9180 F         1 <0>        -0.1332
     12 N1          0.7516   -0.5561    1.1341 N.pl3     1 <0>        -0.9934
     13 C9          0.2445   -0.3919    2.4988 C.3       1 <0>         0.0910
     14 S1          2.1712   -1.3668    0.8703 S.o2      1 <0>         2.6894
     15 O1          2.3594   -2.2292    1.9838 O.2       1 <0>        -0.9519
     16 O2          2.1220   -1.8477   -0.4660 O.2       1 <0>        -0.9451
     17 C10         3.4694   -0.1769    0.9298 C.ar      1 <0>        -0.7175
     18 C11         3.8599    0.4768   -0.2243 C.ar      1 <0>         0.0191
     19 C12         4.8777    1.4098   -0.1804 C.ar      1 <0>        -0.1701
     20 C13         5.5080    1.6909    1.0231 C.ar      1 <0>         0.1888
     21 C14         5.1141    1.0339    2.1797 C.ar      1 <0>        -0.2309
     22 C15         4.0922    0.1056    2.1315 C.ar      1 <0>         0.0220
     23 O3          6.5099    2.6079    1.0688 O.3       1 <0>        -0.2993
     24 C16         7.1133    2.8466    2.3420 C.3       1 <0>         0.0562
     25 C17         8.2118    3.9015    2.1960 C.3       1 <0>         0.0610
     26 O4          7.6271    5.1485    1.8150 O.3       1 <0>        -0.3864
     27 C18         8.5723    6.2077    1.6510 C.3       1 <0>         0.0303
     28 H2          1.0118    1.8988    0.0746 H         1 <0>         0.0704
     29 H3         -0.5686    1.9353   -0.7434 H         1 <0>         0.0771
     30 H4         -0.4874    1.8253    1.0313 H         1 <0>         0.0695
     31 H5         -2.2265    1.3089    0.7808 H         1 <0>         0.1514
     32 H6         -5.0234   -1.8467    0.1172 H         1 <0>         0.1475
     33 H7         -3.1953   -3.3056   -0.6506 H         1 <0>         0.1492
     34 H8         -0.3276   -1.2751    2.7825 H         1 <0>         0.0620
     35 H9          1.0821   -0.2657    3.1848 H         1 <0>         0.0719
     36 H10        -0.3981    0.4874    2.5443 H         1 <0>         0.0782
     37 H11         3.3689    0.2576   -1.1610 H         1 <0>         0.1469
     38 H12         5.1829    1.9196   -1.0823 H         1 <0>         0.1426
     39 H13         5.6032    1.2510    3.1179 H         1 <0>         0.1383
     40 H14         3.7821   -0.4029    3.0324 H         1 <0>         0.1420
     41 H15         6.3572    3.2038    3.0412 H         1 <0>         0.0773
     42 H16         7.5470    1.9200    2.7179 H         1 <0>         0.0841
     43 H17         8.7312    4.0193    3.1470 H         1 <0>         0.0758
     44 H18         8.9210    3.5842    1.4315 H         1 <0>         0.0639
     45 H19         8.0497    7.1195    1.3618 H         1 <0>         0.0893
     46 H20         9.0992    6.3732    2.5907 H         1 <0>         0.0433
     47 H21         9.2890    5.9381    0.8752 H         1 <0>         0.0442
@<TRIPOS>BOND
     1    1    2 1
     2    1   28 1
     3    1   29 1
     4    1   30 1
     5    2    3 1
     6    2    4 1
     7    2   12 1
     8    4    9 ar
     9    4    5 ar
    10    5    6 ar
    11    5   31 1
    12    6    7 ar
    13    6   11 1
    14    7    8 ar
    15    7   32 1
    16    8    9 ar
    17    8   33 1
    18    9   10 1
    19   12   13 1
    20   12   14 1
    21   13   34 1
    22   13   35 1
    23   13   36 1
    24   14   15 2
    25   14   16 2
    26   14   17 1
    27   17   22 ar
    28   17   18 ar
    29   18   19 ar
    30   18   37 1
    31   19   20 ar
    32   19   38 1
    33   20   21 ar
    34   20   23 1
    35   21   22 ar
    36   21   39 1
    37   22   40 1
    38   23   24 1
    39   24   25 1
    40   24   41 1
    41   24   42 1
    42   25   26 1
    43   25   43 1
    44   25   44 1
    45   26   27 1
    46   27   45 1
    47   27   46 1
    48   27   47 1
@<TRIPOS>MOLECULE
ZINC64659581
   45    46     0     0     0
SMALL
USER_CHARGES

@<TRIPOS>ATOM
      1 C1         -0.0187    1.5258    0.0104 C.3       1 <0>        -0.1459
      2 C2          0.0021   -0.0041    0.0020 C.3       1 <0>        -0.1130
      3 C3          0.7421   -0.5109    1.2415 C.3       1 <0>        -0.1548
      4 C4         -1.4333   -0.5336    0.0129 C.3       1 <0>         0.1138
      5 N1         -1.4164   -1.9929   -0.1155 N.am      1 <0>        -0.6028
      6 C5         -1.3576   -2.8331    1.0832 C.3       1 <0>         0.0582
      7 C6         -2.7784   -3.1471    1.5561 C.3       1 <0>         0.4325
      8 F1         -3.4673   -3.8252    0.5447 F         1 <0>        -0.1788
      9 F2         -2.7223   -3.9494    2.7008 F         1 <0>        -0.1745
     10 F3         -3.4448   -1.9539    1.8551 F         1 <0>        -0.1768
     11 C7         -1.4549   -2.5625   -1.3364 C.2       1 <0>         0.5444
     12 O1         -1.5036   -1.8669   -2.3288 O.2       1 <0>        -0.4980
     13 C8         -1.4376   -4.0636   -1.4685 C.3       1 <0>        -0.1763
     14 S1         -1.4984   -4.5169   -3.2239 S.3       1 <0>         0.1268
     15 C9         -1.4715   -6.2786   -3.2103 C.2       1 <0>         0.0186
     16 N2         -1.4255   -7.1062   -2.1840 N.2       1 <0>        -0.2729
     17 N3         -1.4126   -8.4647   -2.4005 N.2       1 <0>        -0.3773
     18 C10        -1.4464   -8.9334   -3.6324 C.2       1 <0>         0.3734
     19 S2         -1.5073   -7.4219   -4.5824 S.3       1 <0>         0.0013
     20 N4         -1.4416  -10.2515   -4.0738 N.pl3     1 <0>        -0.5690
     21 C11        -1.4746  -10.6849   -5.4783 C.3       1 <0>         0.1092
     22 C12        -1.4811  -12.2281   -5.4815 C.3       1 <0>        -0.1298
     23 C13        -2.0225  -12.5763   -4.0697 C.3       1 <0>        -0.1338
     24 C14        -1.3960  -11.4462   -3.2113 C.3       1 <0>         0.1173
     25 H1          1.0039    1.9031    0.0027 H         1 <0>         0.0608
     26 H2         -0.5459    1.8868   -0.8726 H         1 <0>         0.0595
     27 H3         -0.5289    1.8773    0.9072 H         1 <0>         0.0577
     28 H4          0.5123   -0.3556   -0.8948 H         1 <0>         0.0782
     29 H5          0.7568   -1.6008    1.2356 H         1 <0>         0.0537
     30 H6          1.7647   -0.1336    1.2338 H         1 <0>         0.0611
     31 H7          0.2319   -0.1594    2.1383 H         1 <0>         0.0582
     32 H8         -1.9156   -0.2570    0.9504 H         1 <0>         0.0887
     33 H9         -1.9862   -0.1019   -0.8214 H         1 <0>         0.0960
     34 H10        -0.8384   -3.7627    0.8502 H         1 <0>         0.1294
     35 H11        -0.8209   -2.3048    1.8712 H         1 <0>         0.1381
     36 H12        -0.5238   -4.4569   -1.0231 H         1 <0>         0.1291
     37 H13        -2.3022   -4.4836   -0.9546 H         1 <0>         0.1380
     38 H14        -2.3769  -10.3094   -5.9610 H         1 <0>         0.0746
     39 H15        -0.5916  -10.3168   -6.0007 H         1 <0>         0.0749
     40 H16        -2.1478  -12.6094   -6.2550 H         1 <0>         0.0915
     41 H17        -0.4719  -12.6178   -5.6144 H         1 <0>         0.0837
     42 H18        -3.1113  -12.5310   -4.0467 H         1 <0>         0.0814
     43 H19        -1.6667  -13.5541   -3.7450 H         1 <0>         0.0935
     44 H20        -0.3650  -11.6892   -2.9540 H         1 <0>         0.0757
     45 H21        -1.9852  -11.2851   -2.3086 H         1 <0>         0.0848
@<TRIPOS>BOND
     1    1    2 1
     2    1   25 1
     3    1   26 1
     4    1   27 1
     5    2    3 1
     6    2    4 1
     7    2   28 1
     8    3   29 1
     9    3   30 1
    10    3   31 1
    11    4    5 1
    12    4   32 1
    13    4   33 1
    14    5    6 1
    15    5   11 am
    16    6    7 1
    17    6   34 1
    18    6   35 1
    19    7    8 1
    20    7    9 1
    21    7   10 1
    22   11   12 2
    23   11   13 1
    24   13   14 1
    25   13   36 1
    26   13   37 1
    27   14   15 1
    28   15   19 1
    29   15   16 2
    30   16   17 1
    31   17   18 2
    32   18   19 1
    33   18   20 1
    34   20   24 1
    35   20   21 1
    36   21   22 1
    37   21   38 1
    38   21   39 1
    39   22   23 1
    40   22   40 1
    41   22   41 1
    42   23   24 1
    43   23   42 1
    44   23   43 1
    45   24   44 1
    46   24   45 1
@<TRIPOS>MOLECULE
ZINC02272857
   40    41     0     0     0
SMALL
USER_CHARGES
ethyl 4-[[3-cyano-6-methyl-4-(3-thienyl)-2-pyridyl]sulfanyl]-3-oxo-butanoate
@<TRIPOS>ATOM
      1 C1          7.1311   10.4043   -0.0118 C.3       1 <0>        -0.1534
      2 C2          5.7240    9.8035   -0.0017 C.3       1 <0>         0.0628
      3 O1          5.8164    8.3544   -0.0098 O.3       1 <0>        -0.3596
      4 C3          4.6617    7.6701   -0.0025 C.2       1 <0>         0.4539
      5 O2          3.6086    8.2623    0.0104 O.2       1 <0>        -0.4695
      6 C4          4.6787    6.1633   -0.0102 C.3       1 <0>        -0.1431
      7 C5          3.2637    5.6448    0.0004 C.2       1 <0>         0.3585
      8 O3          2.3371    6.4191    0.0130 O.2       1 <0>        -0.3855
      9 C6          3.0051    4.1602   -0.0046 C.3       1 <0>        -0.1548
     10 S1          1.2205    3.8586    0.0105 S.3       1 <0>         0.0159
     11 C7          1.2079    2.0966    0.0018 C.ar      1 <0>         0.1589
     12 C8         -0.0171    1.4072    0.0098 C.ar      1 <0>        -0.0649
     13 C9          0.0021   -0.0041    0.0020 C.ar      1 <0>         0.0920
     14 C10         1.2441   -0.6458   -0.0133 C.ar      1 <0>        -0.1704
     15 C11         2.3962    0.1110   -0.0202 C.ar      1 <0>         0.1788
     16 N1          2.3524    1.4308   -0.0132 N.ar      1 <0>        -0.4941
     17 C12         3.7341   -0.5825   -0.0367 C.3       1 <0>        -0.1101
     18 C13        -1.2562   -0.7820    0.0094 C.2       1 <0>        -0.1164
     19 C14        -1.4706   -1.8043   -0.9147 C.2       1 <0>        -0.1372
     20 C15        -2.6408   -2.4766   -0.8475 C.2       1 <0>        -0.1846
     21 S2         -3.4660   -1.6711    0.5126 S.3       1 <0>         0.1310
     22 C16        -2.2410   -0.5138    0.9183 C.2       1 <0>        -0.1818
     23 C17        -1.2581    2.1215    0.0196 C.1       1 <0>         0.2492
     24 N2         -2.2427    2.6882    0.0274 N.1       1 <0>        -0.3852
     25 H1          7.6587   10.0789   -0.9084 H         1 <0>         0.0676
     26 H2          7.0618   11.4920   -0.0057 H         1 <0>         0.0818
     27 H3          7.6753   10.0699    0.8714 H         1 <0>         0.0675
     28 H4          5.1798   10.1378   -0.8849 H         1 <0>         0.0718
     29 H5          5.1965   10.1289    0.8949 H         1 <0>         0.0716
     30 H6          5.1615    5.8313    0.8002 H         1 <0>         0.1266
     31 H7          5.1882    5.8103   -0.9068 H         1 <0>         0.1446
     32 H8          3.4199    3.7469    0.8060 H         1 <0>         0.1190
     33 H9          3.4406    3.7186   -0.9010 H         1 <0>         0.1351
     34 H10         1.3003   -1.7244   -0.0193 H         1 <0>         0.1506
     35 H11         4.0468   -0.7442   -1.0683 H         1 <0>         0.0877
     36 H12         4.4711    0.0377    0.4734 H         1 <0>         0.0833
     37 H13         3.6520   -1.5426    0.4728 H         1 <0>         0.0832
     38 H14        -0.7255   -2.0525   -1.6560 H         1 <0>         0.1434
     39 H15        -2.9897   -3.2919   -1.4640 H         1 <0>         0.1919
     40 H16        -2.2529    0.2343    1.6972 H         1 <0>         0.1841
@<TRIPOS>BOND
     1    1    2 1
     2    1   25 1
     3    1   26 1
     4    1   27 1
     5    2    3 1
     6    2   28 1
     7    2   29 1
     8    3    4 1
     9    4    5 2
    10    4    6 1
    11    6    7 1
    12    6   30 1
    13    6   31 1
    14    7    8 2
    15    7    9 1
    16    9   10 1
    17    9   32 1
    18    9   33 1
    19   10   11 1
    20   11   16 ar
    21   11   12 ar
    22   12   13 ar
    23   12   23 1
    24   13   14 ar
    25   13   18 1
    26   14   15 ar
    27   14   34 1
    28   15   16 ar
    29   15   17 1
    30   17   35 1
    31   17   36 1
    32   17   37 1
    33   18   22 2
    34   18   19 1
    35   19   20 2
    36   19   38 1
    37   20   21 1
    38   20   39 1
    39   21   22 1
    40   22   40 1
    41   23   24 3
@<TRIPOS>MOLECULE
ZINC35614699
   56    57     0     0     0
SMALL
USER_CHARGES

@<TRIPOS>ATOM
      1 C1         -0.0187    1.5258    0.0104 C.3       1 <0>        -0.1737
      2 C2          0.0021   -0.0041    0.0020 C.3       1 <0>         0.0991
      3 N1          0.6878   -0.4765   -1.2033 N.am      1 <0>        -0.6102
      4 C3          2.1353   -0.7012   -1.1821 C.3       1 <0>         0.1054
      5 C4          2.4212   -2.1448   -0.7635 C.3       1 <0>         0.0982
      6 N2          3.8688   -2.3695   -0.7422 N.am      1 <0>        -0.6020
      7 C5          4.5686   -2.8397   -1.9526 C.3       1 <0>         0.2353
      8 H1          4.7027   -2.0281   -2.6677 H         1 <0>         0.1209
      9 S1          6.1867   -3.3773   -1.2491 S.3       1 <0>        -0.2454
     10 C6          6.0627   -2.4111    0.3181 C.3       1 <0>        -0.0942
     11 C7          4.5661   -2.1470    0.3643 C.2       1 <0>         0.5147
     12 O1          4.0287   -1.7511    1.3770 O.2       1 <0>        -0.5150
     13 C8          3.8399   -3.9982   -2.5836 C.ar      1 <0>        -0.1028
     14 C9          3.1001   -4.8607   -1.7965 C.ar      1 <0>        -0.0842
     15 C10         2.4317   -5.9233   -2.3753 C.ar      1 <0>        -0.1159
     16 C11         2.5028   -6.1232   -3.7413 C.ar      1 <0>        -0.0506
     17 C12         3.2419   -5.2601   -4.5285 C.ar      1 <0>        -0.1174
     18 C13         3.9068   -4.1950   -3.9503 C.ar      1 <0>        -0.0841
     19 C14         1.7750   -7.2822   -4.3722 C.3       1 <0>        -0.0322
     20 C15         0.2758   -7.1548   -4.0948 C.3       1 <0>        -0.1393
     21 C16         2.0166   -7.2747   -5.8829 C.3       1 <0>        -0.1463
     22 C17         2.2937   -8.5938   -3.7792 C.3       1 <0>        -0.1391
     23 C18        -0.0130   -0.7045   -2.3317 C.2       1 <0>         0.5151
     24 O2          0.5546   -1.0956   -3.3296 O.2       1 <0>        -0.5089
     25 C19        -1.5021   -0.4734   -2.3536 C.3       1 <0>         0.0436
     26 O3         -2.0131   -0.7827   -3.6517 O.3       1 <0>        -0.3666
     27 C20        -3.4240   -0.5963   -3.7805 C.3       1 <0>         0.0293
     28 H2          1.0039    1.9031    0.0027 H         1 <0>         0.0615
     29 H3         -0.5459    1.8868   -0.8726 H         1 <0>         0.0575
     30 H4         -0.5289    1.8773    0.9072 H         1 <0>         0.0725
     31 H5          0.5293   -0.3651    0.8851 H         1 <0>         0.0875
     32 H6         -1.0205   -0.3814    0.0098 H         1 <0>         0.0811
     33 H7          2.5453   -0.5232   -2.1762 H         1 <0>         0.0876
     34 H8          2.5986   -0.0180   -0.4703 H         1 <0>         0.0834
     35 H9          2.0113   -2.3228    0.2307 H         1 <0>         0.0915
     36 H10         1.9579   -2.8280   -1.4752 H         1 <0>         0.0955
     37 H11         6.3878   -3.0035    1.1733 H         1 <0>         0.1414
     38 H12         6.6225   -1.4782    0.2515 H         1 <0>         0.1327
     39 H13         3.0445   -4.7046   -0.7293 H         1 <0>         0.1197
     40 H14         1.8543   -6.5976   -1.7603 H         1 <0>         0.1236
     41 H15         3.2977   -5.4164   -5.5957 H         1 <0>         0.1318
     42 H16         4.4812   -3.5185   -4.5658 H         1 <0>         0.1262
     43 H17        -0.0938   -6.2204   -4.5172 H         1 <0>         0.0582
     44 H18        -0.2507   -7.9931   -4.5511 H         1 <0>         0.0600
     45 H19         0.1036   -7.1602   -3.0185 H         1 <0>         0.0562
     46 H20         3.0847   -7.3654   -6.0806 H         1 <0>         0.0595
     47 H21         1.4902   -8.1130   -6.3392 H         1 <0>         0.0599
     48 H22         1.6470   -6.3403   -6.3054 H         1 <0>         0.0603
     49 H23         2.1216   -8.5991   -2.7029 H         1 <0>         0.0569
     50 H24         1.7673   -9.4321   -4.2355 H         1 <0>         0.0601
     51 H25         3.3618   -8.6845   -3.9769 H         1 <0>         0.0573
     52 H26        -1.9801   -1.1142   -1.6127 H         1 <0>         0.0803
     53 H27        -1.7112    0.5706   -2.1201 H         1 <0>         0.0811
     54 H28        -3.6730    0.4451   -3.5767 H         1 <0>         0.0447
     55 H29        -3.7333   -0.8521   -4.7940 H         1 <0>         0.0933
     56 H30        -3.9420   -1.2396   -3.0693 H         1 <0>         0.0447
@<TRIPOS>BOND
     1    1    2 1
     2    1   28 1
     3    1   29 1
     4    1   30 1
     5    2    3 1
     6    2   31 1
     7    2   32 1
     8    3    4 1
     9    3   23 am
    10    4    5 1
    11    4   33 1
    12    4   34 1
    13    5    6 1
    14    5   35 1
    15    5   36 1
    16    6   11 am
    17    6    7 1
    18    7    8 1
    19    7    9 1
    20    7   13 1
    21    9   10 1
    22   10   11 1
    23   10   37 1
    24   10   38 1
    25   11   12 2
    26   13   18 ar
    27   13   14 ar
    28   14   15 ar
    29   14   39 1
    30   15   16 ar
    31   15   40 1
    32   16   17 ar
    33   16   19 1
    34   17   18 ar
    35   17   41 1
    36   18   42 1
    37   19   20 1
    38   19   21 1
    39   19   22 1
    40   20   43 1
    41   20   44 1
    42   20   45 1
    43   21   46 1
    44   21   47 1
    45   21   48 1
    46   22   49 1
    47   22   50 1
    48   22   51 1
    49   23   24 2
    50   23   25 1
    51   25   26 1
    52   25   52 1
    53   25   53 1
    54   26   27 1
    55   27   54 1
    56   27   55 1
    57   27   56 1
@<TRIPOS>MOLECULE
ZINC57741467
   52    53     0     0     0
SMALL
USER_CHARGES

@<TRIPOS>ATOM
      1 C1         -0.0187    1.5258    0.0104 C.3       1 <0>        -0.1528
      2 C2          0.0021   -0.0041    0.0020 C.3       1 <0>        -0.1180
      3 C3         -1.4333   -0.5336    0.0129 C.3       1 <0>        -0.0360
      4 C4         -1.4129   -2.0405    0.0046 C.2       1 <0>         0.0667
      5 N1         -1.3974   -2.8596    1.0264 N.2       1 <0>        -0.5053
      6 C5         -1.3803   -4.1667    0.8574 C.2       1 <0>         0.0606
      7 C6         -1.3796   -4.6219   -0.4217 C.2       1 <0>        -0.2120
      8 S1         -1.4119   -3.0789   -1.3200 S.3       1 <0>         0.1308
      9 C7         -1.3620   -5.1127    2.0304 C.3       1 <0>        -0.5407
     10 S2         -3.0647   -5.5162    2.5085 S.o2      1 <0>         2.4463
     11 O1         -3.6905   -4.3323    2.9840 O.2       1 <0>        -0.9019
     12 O2         -3.6706   -6.2392    1.4458 O.2       1 <0>        -0.9105
     13 C8         -2.8308   -6.6441    3.9098 C.3       1 <0>        -0.6644
     14 C9         -4.1750   -7.0804    4.4332 C.2       1 <0>         0.5452
     15 O3         -5.1907   -6.6707    3.9122 O.2       1 <0>        -0.5212
     16 N2         -4.2484   -7.9258    5.4803 N.am      1 <0>        -0.6008
     17 C10        -3.0215   -8.4206    6.1097 C.3       1 <0>         0.0704
     18 C11        -5.5551   -8.3499    5.9892 C.3       1 <0>         0.1532
     19 C12        -5.9916   -9.6011    5.2716 C.ar      1 <0>        -0.1201
     20 C13        -6.7282   -9.5079    4.1056 C.ar      1 <0>        -0.0908
     21 C14        -7.1286  -10.6557    3.4474 C.ar      1 <0>        -0.1196
     22 C15        -6.7920  -11.8966    3.9550 C.ar      1 <0>        -0.0742
     23 C16        -6.0546  -11.9898    5.1205 C.ar      1 <0>        -0.1230
     24 C17        -5.6506  -10.8420    5.7764 C.ar      1 <0>        -0.1029
     25 C18        -7.2293  -13.1479    3.2380 C.3       1 <0>        -0.0880
     26 C19        -6.1581  -13.5559    2.2246 C.3       1 <0>        -0.1471
     27 H1          1.0039    1.9031    0.0027 H         1 <0>         0.0599
     28 H2         -0.5459    1.8868   -0.8726 H         1 <0>         0.0581
     29 H3         -0.5289    1.8773    0.9072 H         1 <0>         0.0590
     30 H4          0.5123   -0.3556   -0.8948 H         1 <0>         0.0660
     31 H5          0.5293   -0.3651    0.8851 H         1 <0>         0.0696
     32 H6         -1.9435   -0.1821    0.9097 H         1 <0>         0.1024
     33 H7         -1.9605   -0.1726   -0.8702 H         1 <0>         0.0946
     34 H8         -1.3669   -5.6360   -0.7929 H         1 <0>         0.2054
     35 H9         -0.8365   -6.0263    1.7522 H         1 <0>         0.1482
     36 H10        -0.8510   -4.6409    2.8697 H         1 <0>         0.1511
     37 H11        -2.2672   -7.5179    3.5828 H         1 <0>         0.1611
     38 H12        -2.2817   -6.1325    4.7003 H         1 <0>         0.1622
     39 H13        -2.7255   -7.7435    6.9109 H         1 <0>         0.0653
     40 H14        -3.1993   -9.4143    6.5208 H         1 <0>         0.0788
     41 H15        -2.2267   -8.4722    5.3655 H         1 <0>         0.0746
     42 H16        -5.4810   -8.5510    7.0579 H         1 <0>         0.0921
     43 H17        -6.2857   -7.5593    5.8180 H         1 <0>         0.0982
     44 H18        -6.9911   -8.5384    3.7090 H         1 <0>         0.1298
     45 H19        -7.7046  -10.5829    2.5368 H         1 <0>         0.1229
     46 H20        -5.7920  -12.9593    5.5173 H         1 <0>         0.1215
     47 H21        -5.0713  -10.9148    6.6850 H         1 <0>         0.1199
     48 H22        -7.3698  -13.9510    3.9614 H         1 <0>         0.0721
     49 H23        -8.1684  -12.9592    2.7178 H         1 <0>         0.0728
     50 H24        -6.4744  -14.4609    1.7060 H         1 <0>         0.0592
     51 H25        -6.0177  -12.7528    1.5012 H         1 <0>         0.0562
     52 H26        -5.2190  -13.7446    2.7448 H         1 <0>         0.0548
@<TRIPOS>BOND
     1    1    2 1
     2    1   27 1
     3    1   28 1
     4    1   29 1
     5    2    3 1
     6    2   30 1
     7    2   31 1
     8    3    4 1
     9    3   32 1
    10    3   33 1
    11    4    8 1
    12    4    5 2
    13    5    6 1
    14    6    7 2
    15    6    9 1
    16    7    8 1
    17    7   34 1
    18    9   10 1
    19    9   35 1
    20    9   36 1
    21   10   11 2
    22   10   12 2
    23   10   13 1
    24   13   14 1
    25   13   37 1
    26   13   38 1
    27   14   15 2
    28   14   16 am
    29   16   17 1
    30   16   18 1
    31   17   39 1
    32   17   40 1
    33   17   41 1
    34   18   19 1
    35   18   42 1
    36   18   43 1
    37   19   24 ar
    38   19   20 ar
    39   20   21 ar
    40   20   44 1
    41   21   22 ar
    42   21   45 1
    43   22   23 ar
    44   22   25 1
    45   23   24 ar
    46   23   46 1
    47   24   47 1
    48   25   26 1
    49   25   48 1
    50   25   49 1
    51   26   50 1
    52   26   51 1
    53   26   52 1
@<TRIPOS>MOLECULE
ZINC63281505
   42    43     0     0     0
SMALL
USER_CHARGES

@<TRIPOS>ATOM
      1 C1          0.9576    1.4090   -1.2247 C.3       1 <0>         0.0309
      2 O1          0.8377   -0.0142   -1.1777 O.3       1 <0>        -0.3743
      3 C2          0.0617   -0.4962   -0.0788 C.3       1 <0>         0.0615
      4 C3          0.0011   -2.0242   -0.1286 C.3       1 <0>         0.0567
      5 N1          1.3478   -2.5746    0.0756 N.3       1 <0>        -0.5365
      6 C4          1.8334   -2.2881    1.4320 C.3       1 <0>         0.0070
      7 C5          3.3505   -2.4800    1.4817 C.3       1 <0>         0.4570
      8 F1          3.9621   -1.5952    0.5871 F         1 <0>        -0.1660
      9 F2          3.8107   -2.2248    2.7780 F         1 <0>        -0.1835
     10 F3          3.6660   -3.7956    1.1254 F         1 <0>        -0.1743
     11 C6          1.3740   -4.0174   -0.1993 C.3       1 <0>         0.2590
     12 N2          2.0196   -4.2565   -1.4924 N.am      1 <0>        -0.3210
     13 C7          1.2586   -4.5727   -2.5575 C.2       1 <0>         0.5063
     14 O2          0.0461   -4.6583   -2.4456 O.2       1 <0>        -0.5125
     15 C8          1.8778   -4.8037   -3.8049 C.2       1 <0>        -0.2745
     16 C9          3.2377   -4.6936   -3.8714 C.2       1 <0>         0.0261
     17 C10         3.9371   -4.3586   -2.7001 C.2       1 <0>         0.0773
     18 N3          3.2962   -4.1543   -1.5829 N.2       1 <0>        -0.1658
     19 C11         5.4380   -4.2285   -2.7363 C.3       1 <0>        -0.1035
     20 C12         6.2524   -5.2030   -1.8830 C.3       1 <0>        -0.1591
     21 C13         6.1352   -3.7354   -1.4667 C.3       1 <0>        -0.1558
     22 C14         1.0653   -5.1605   -5.0230 C.3       1 <0>         0.5348
     23 F4          0.8357   -6.5403   -5.0426 F         1 <0>        -0.1706
     24 F5         -0.1589   -4.4845   -4.9814 F         1 <0>        -0.1594
     25 F6          1.7649   -4.7877   -6.1757 F         1 <0>        -0.1732
     26 H1          1.4371    1.7635   -0.3123 H         1 <0>         0.0405
     27 H2          1.5605    1.6946   -2.0866 H         1 <0>         0.0866
     28 H3         -0.0335    1.8544   -1.3109 H         1 <0>         0.0404
     29 H4          0.5226   -0.1812    0.8573 H         1 <0>         0.0505
     30 H5         -0.9480   -0.0903   -0.1413 H         1 <0>         0.0619
     31 H6         -0.6626   -2.3873    0.6561 H         1 <0>         0.0686
     32 H7         -0.3775   -2.3413   -1.1003 H         1 <0>         0.1019
     33 H8          1.5885   -1.2592    1.6959 H         1 <0>         0.1273
     34 H9          1.3579   -2.9676    2.1393 H         1 <0>         0.0916
     35 H10         1.9332   -4.5266    0.5857 H         1 <0>         0.1208
     36 H11         0.3540   -4.4008   -0.2260 H         1 <0>         0.1163
     37 H12         3.7620   -4.8603   -4.8008 H         1 <0>         0.1664
     38 H13         5.8605   -3.9229   -3.6934 H         1 <0>         0.1325
     39 H14         5.7025   -5.9383   -1.2955 H         1 <0>         0.0962
     40 H15         7.2108   -5.5389   -2.2788 H         1 <0>         0.1045
     41 H16         7.0165   -3.1058   -1.5886 H         1 <0>         0.1015
     42 H17         5.5082   -3.5052   -0.6053 H         1 <0>         0.1062
@<TRIPOS>BOND
     1    1    2 1
     2    1   26 1
     3    1   27 1
     4    1   28 1
     5    2    3 1
     6    3    4 1
     7    3   29 1
     8    3   30 1
     9    4    5 1
    10    4   31 1
    11    4   32 1
    12    5    6 1
    13    5   11 1
    14    6    7 1
    15    6   33 1
    16    6   34 1
    17    7    8 1
    18    7    9 1
    19    7   10 1
    20   11   12 1
    21   11   35 1
    22   11   36 1
    23   12   18 1
    24   12   13 am
    25   13   14 2
    26   13   15 1
    27   15   16 2
    28   15   22 1
    29   16   17 1
    30   16   37 1
    31   17   18 2
    32   17   19 1
    33   19   21 1
    34   19   20 1
    35   19   38 1
    36   20   21 1
    37   20   39 1
    38   20   40 1
    39   21   41 1
    40   21   42 1
    41   22   23 1
    42   22   24 1
    43   22   25 1
@<TRIPOS>MOLECULE
ZINC66493418
   50    52     0     0     0
SMALL
USER_CHARGES

@<TRIPOS>ATOM
      1 C1         -0.2234    1.4442   -2.2636 C.3       1 <0>         0.0303
      2 O1         -0.1468    0.1788   -1.6041 O.3       1 <0>        -0.3931
      3 C2          0.6381   -0.7923   -2.2991 C.3       1 <0>         0.0627
      4 C3          0.7531   -2.0588   -1.4483 C.3       1 <0>         0.0519
      5 N1         -0.5594   -2.7133   -1.3647 N.3       1 <0>        -0.5040
      6 C4         -0.4179   -4.1347   -1.0221 C.3       1 <0>         0.0392
      7 C5         -1.7638   -4.8394   -1.2034 C.3       1 <0>         0.0484
      8 O2         -2.2004   -4.6918   -2.5561 O.3       1 <0>        -0.2861
      9 C6         -3.3871   -5.2634   -2.8868 C.ar      1 <0>         0.1429
     10 C7         -4.1118   -5.9384   -1.9450 C.ar      1 <0>        -0.2258
     11 C8         -5.3298   -6.5297   -2.2681 C.ar      1 <0>        -0.0716
     12 C9         -5.8350   -6.4531   -3.5303 C.ar      1 <0>        -0.1471
     13 C10        -5.1206   -5.7676   -4.5274 C.ar      1 <0>        -0.0187
     14 C11        -3.8825   -5.1597   -4.2024 C.ar      1 <0>        -0.0702
     15 C12        -3.1707   -4.4709   -5.1976 C.ar      1 <0>        -0.0804
     16 C13        -3.6801   -4.3917   -6.4576 C.ar      1 <0>        -0.1317
     17 C14        -4.9001   -4.9848   -6.7767 C.ar      1 <0>        -0.1027
     18 C15        -5.6123   -5.6694   -5.8405 C.ar      1 <0>        -0.1180
     19 C16        -1.4309   -2.0243   -0.4035 C.3       1 <0>         0.0703
     20 H1         -1.1541   -0.9717   -0.3445 H         1 <0>         0.1323
     21 C17        -1.2932   -2.6761    0.9823 C.3       1 <0>        -0.1670
     22 C18        -2.4250   -2.1795    1.9139 C.3       1 <0>        -0.5775
     23 S1         -3.7802   -1.7929    0.7323 S.o2      1 <0>         2.3556
     24 O3         -4.8303   -2.7337    0.9094 O.2       1 <0>        -0.9361
     25 O4         -4.0683   -0.4029    0.7980 O.2       1 <0>        -0.9320
     26 C19        -2.9143   -2.1530   -0.8535 C.3       1 <0>        -0.5676
     27 H2          0.7789    1.8586   -2.3720 H         1 <0>         0.0412
     28 H3         -0.6713    1.3139   -3.2487 H         1 <0>         0.0432
     29 H4         -0.8362    2.1252   -1.6730 H         1 <0>         0.0874
     30 H5          0.1598   -1.0343   -3.2482 H         1 <0>         0.0634
     31 H6          1.6332   -0.3887   -2.4862 H         1 <0>         0.0551
     32 H7          1.4703   -2.7401   -1.9061 H         1 <0>         0.0939
     33 H8          1.0916   -1.7941   -0.4466 H         1 <0>         0.0522
     34 H9          0.3236   -4.5940   -1.6758 H         1 <0>         0.0945
     35 H10        -0.0957   -4.2282    0.0149 H         1 <0>         0.0737
     36 H11        -1.6537   -5.8986   -0.9707 H         1 <0>         0.0738
     37 H12        -2.4999   -4.3949   -0.5335 H         1 <0>         0.0660
     38 H13        -3.7341   -6.0143   -0.9361 H         1 <0>         0.1264
     39 H14        -5.8828   -7.0581   -1.5056 H         1 <0>         0.1256
     40 H15        -6.7814   -6.9178   -3.7643 H         1 <0>         0.1280
     41 H16        -2.2241   -4.0061   -4.9647 H         1 <0>         0.1329
     42 H17        -3.1307   -3.8610   -7.2211 H         1 <0>         0.1230
     43 H18        -5.2822   -4.9070   -7.7839 H         1 <0>         0.1235
     44 H19        -6.5562   -6.1245   -6.1021 H         1 <0>         0.1291
     45 H20        -1.3573   -3.7595    0.8807 H         1 <0>         0.0930
     46 H21        -0.3276   -2.4107    1.4127 H         1 <0>         0.0973
     47 H22        -2.7282   -2.9648    2.6063 H         1 <0>         0.1409
     48 H23        -2.1161   -1.2846    2.4541 H         1 <0>         0.1409
     49 H24        -3.1611   -1.4123   -1.6141 H         1 <0>         0.1468
     50 H25        -3.1343   -3.1618   -1.2026 H         1 <0>         0.1442
@<TRIPOS>BOND
     1    1    2 1
     2    1   27 1
     3    1   28 1
     4    1   29 1
     5    2    3 1
     6    3    4 1
     7    3   30 1
     8    3   31 1
     9    4    5 1
    10    4   32 1
    11    4   33 1
    12    5    6 1
    13    5   19 1
    14    6    7 1
    15    6   34 1
    16    6   35 1
    17    7    8 1
    18    7   36 1
    19    7   37 1
    20    8    9 1
    21    9   14 ar
    22    9   10 ar
    23   10   11 ar
    24   10   38 1
    25   11   12 ar
    26   11   39 1
    27   12   13 ar
    28   12   40 1
    29   13   18 ar
    30   13   14 ar
    31   14   15 ar
    32   15   16 ar
    33   15   41 1
    34   16   17 ar
    35   16   42 1
    36   17   18 ar
    37   17   43 1
    38   18   44 1
    39   19   20 1
    40   19   26 1
    41   19   21 1
    42   21   22 1
    43   21   45 1
    44   21   46 1
    45   22   23 1
    46   22   47 1
    47   22   48 1
    48   23   24 2
    49   23   25 2
    50   23   26 1
    51   26   49 1
    52   26   50 1
@<TRIPOS>MOLECULE
ZINC05078736
   49    50     0     0     0
SMALL
USER_CHARGES
[2-cyanoethyl-(3,5-dimethylphenyl)-carbamoyl]methyl 3-(2-fluorophenyl)prop-2-enoate
@<TRIPOS>ATOM
      1 C1          8.5307   -1.9274    2.3328 C.3       1 <0>        -0.1167
      2 C2          8.4005   -0.9578    1.1865 C.ar      1 <0>        -0.0688
      3 C3          9.3890   -0.8921    0.2218 C.ar      1 <0>        -0.1164
      4 C4          9.2728   -0.0044   -0.8321 C.ar      1 <0>        -0.0698
      5 C5          8.1683    0.8197   -0.9242 C.ar      1 <0>        -0.1231
      6 C6          7.1740    0.7564    0.0432 C.ar      1 <0>         0.1434
      7 C7          7.2967   -0.1318    1.1037 C.ar      1 <0>        -0.1122
      8 N1          6.0538    1.5900   -0.0472 N.am      1 <0>        -0.5672
      9 C8          6.2015    3.0371    0.1269 C.3       1 <0>         0.1085
     10 C9          6.0286    3.3932    1.6048 C.3       1 <0>        -0.0476
     11 C10         6.1770    4.8472    1.7797 C.1       1 <0>         0.2016
     12 N2          6.2916    5.9694    1.9147 N.1       1 <0>        -0.4160
     13 C11         4.8388    1.0615   -0.2945 C.2       1 <0>         0.5207
     14 O1          4.7288   -0.1241   -0.5254 O.2       1 <0>        -0.4875
     15 C12         3.6171    1.9437   -0.2841 C.3       1 <0>         0.0477
     16 O2          2.4592    1.1572   -0.5716 O.3       1 <0>        -0.3239
     17 C13         1.2735    1.8004   -0.6005 C.2       1 <0>         0.5022
     18 O3          1.2254    2.9970   -0.3872 O.2       1 <0>        -0.5060
     19 C14         0.0472    1.0596   -0.8881 C.2       1 <0>        -0.1905
     20 C15        -1.1386    1.7042   -0.9226 C.2       1 <0>         0.0014
     21 C16        -2.3718    0.9599   -1.2179 C.ar      1 <0>        -0.1182
     22 C17        -2.3211   -0.4166   -1.4639 C.ar      1 <0>        -0.0678
     23 C18        -3.4812   -1.1073   -1.7395 C.ar      1 <0>        -0.1318
     24 C19        -4.6966   -0.4440   -1.7734 C.ar      1 <0>        -0.0714
     25 C20        -4.7583    0.9160   -1.5319 C.ar      1 <0>        -0.1570
     26 C21        -3.6052    1.6238   -1.2490 C.ar      1 <0>         0.1275
     27 F1         -3.6667    2.9516   -1.0075 F         1 <0>        -0.1294
     28 C22        10.3522    0.0635   -1.8815 C.3       1 <0>        -0.1164
     29 H1          9.0517   -1.4446    3.1596 H         1 <0>         0.0731
     30 H2          7.5386   -2.2381    2.6604 H         1 <0>         0.0684
     31 H3          9.0960   -2.8007    2.0075 H         1 <0>         0.0694
     32 H4         10.2535   -1.5357    0.2914 H         1 <0>         0.1258
     33 H5          8.0778    1.5123   -1.7479 H         1 <0>         0.1255
     34 H6          6.5275   -0.1799    1.8603 H         1 <0>         0.1240
     35 H7          7.1926    3.3439   -0.2073 H         1 <0>         0.1022
     36 H8          5.4434    3.5531   -0.4623 H         1 <0>         0.0966
     37 H9          5.0376    3.0863    1.9390 H         1 <0>         0.1117
     38 H10         6.7867    2.8771    2.1939 H         1 <0>         0.1191
     39 H11         3.7245    2.7219   -1.0397 H         1 <0>         0.1042
     40 H12         3.5093    2.4035    0.6983 H         1 <0>         0.1041
     41 H13         0.0899   -0.0028   -1.0775 H         1 <0>         0.1474
     42 H14        -1.1813    2.7666   -0.7332 H         1 <0>         0.1434
     43 H15        -1.3748   -0.9364   -1.4382 H         1 <0>         0.1419
     44 H16        -3.4426   -2.1697   -1.9294 H         1 <0>         0.1371
     45 H17        -5.6014   -0.9924   -1.9901 H         1 <0>         0.1384
     46 H18        -5.7101    1.4255   -1.5598 H         1 <0>         0.1421
     47 H19        11.1018    0.7972   -1.5848 H         1 <0>         0.0732
     48 H20        10.8218   -0.9148   -1.9836 H         1 <0>         0.0694
     49 H21         9.9138    0.3574   -2.8352 H         1 <0>         0.0677
@<TRIPOS>BOND
     1    1    2 1
     2    1   29 1
     3    1   30 1
     4    1   31 1
     5    2    7 ar
     6    2    3 ar
     7    3    4 ar
     8    3   32 1
     9    4    5 ar
    10    4   28 1
    11    5    6 ar
    12    5   33 1
    13    6    7 ar
    14    6    8 1
    15    7   34 1
    16    8    9 1
    17    8   13 am
    18    9   10 1
    19    9   35 1
    20    9   36 1
    21   10   11 1
    22   10   37 1
    23   10   38 1
    24   11   12 3
    25   13   14 2
    26   13   15 1
    27   15   16 1
    28   15   39 1
    29   15   40 1
    30   16   17 1
    31   17   18 2
    32   17   19 1
    33   19   20 2
    34   19   41 1
    35   20   21 1
    36   20   42 1
    37   21   26 ar
    38   21   22 ar
    39   22   23 ar
    40   22   43 1
    41   23   24 ar
    42   23   44 1
    43   24   25 ar
    44   24   45 1
    45   25   26 ar
    46   25   46 1
    47   26   27 1
    48   28   47 1
    49   28   48 1
    50   28   49 1
@<TRIPOS>MOLECULE
ZINC18831119
   45    46     0     0     0
SMALL
USER_CHARGES
(E)-N-[(5-chloro-2-thienyl)methyl]-3-[4-(cyanomethoxy)-3-methoxy-phenyl]-N-ethyl-prop-2-enamide
@<TRIPOS>ATOM
      1 C1          4.1539   -6.0138    1.3731 C.3       1 <0>        -0.1744
      2 C2          3.7027   -6.2682   -0.0665 C.3       1 <0>         0.1023
      3 N1          2.4460   -7.0212   -0.0585 N.am      1 <0>        -0.6066
      4 C3          2.4698   -8.4860   -0.0666 C.3       1 <0>         0.1984
      5 C4          2.4643   -8.9806   -1.4901 C.2       1 <0>        -0.1605
      6 C5          3.5139   -9.2436   -2.3060 C.2       1 <0>        -0.1394
      7 C6          3.2690   -9.6948   -3.5898 C.2       1 <0>        -0.1429
      8 C7          1.9847   -9.8608   -3.9941 C.2       1 <0>        -0.1263
      9 S1          1.0737   -9.3796   -2.5361 S.3       1 <0>         0.1238
     10 Cl1         1.3834  -10.4067   -5.5284 Cl        1 <0>         0.0154
     11 C8          1.2681   -6.3664   -0.0438 C.2       1 <0>         0.5507
     12 O1          0.2241   -6.9920   -0.0372 O.2       1 <0>        -0.5344
     13 C9          1.2445   -4.9041   -0.0357 C.2       1 <0>        -0.2181
     14 C10         0.0647   -4.2483   -0.0209 C.2       1 <0>        -0.0090
     15 C11         0.0409   -2.7785   -0.0128 C.ar      1 <0>        -0.0706
     16 C12         1.2402   -2.0571   -0.0208 C.ar      1 <0>        -0.0928
     17 C13         1.2150   -0.6798   -0.0189 C.ar      1 <0>        -0.1733
     18 C14         0.0021   -0.0041    0.0020 C.ar      1 <0>         0.1138
     19 C15        -1.1971   -0.7156    0.0096 C.ar      1 <0>         0.1064
     20 C16        -1.1811   -2.0964    0.0025 C.ar      1 <0>        -0.1471
     21 O2         -2.3826   -0.0495    0.0245 O.3       1 <0>        -0.3045
     22 C17        -3.5719   -0.8418    0.0316 C.3       1 <0>         0.0233
     23 O3         -0.0163    1.3540    0.0095 O.3       1 <0>        -0.2951
     24 C18         1.2479    2.0200    0.0010 C.3       1 <0>         0.1584
     25 C19         1.0353    3.4766    0.0108 C.1       1 <0>         0.2057
     26 N2          0.8712    4.6006    0.0184 N.1       1 <0>        -0.3880
     27 H1          3.3898   -5.4399    1.8974 H         1 <0>         0.0611
     28 H2          4.3046   -6.9668    1.8804 H         1 <0>         0.0607
     29 H3          5.0889   -5.4536    1.3672 H         1 <0>         0.0705
     30 H4          4.4668   -6.8421   -0.5907 H         1 <0>         0.0820
     31 H5          3.5520   -5.3153   -0.5738 H         1 <0>         0.0834
     32 H6          3.3704   -8.8376    0.4367 H         1 <0>         0.1055
     33 H7          1.5907   -8.8665    0.4536 H         1 <0>         0.1029
     34 H8          4.5267   -9.1024   -1.9587 H         1 <0>         0.1399
     35 H9          4.0873   -9.9115   -4.2605 H         1 <0>         0.1409
     36 H10         2.1709   -4.3490   -0.0416 H         1 <0>         0.1334
     37 H11        -0.8617   -4.8034   -0.0151 H         1 <0>         0.1367
     38 H12         2.1851   -2.5801   -0.0327 H         1 <0>         0.1348
     39 H13         2.1410   -0.1242   -0.0296 H         1 <0>         0.1444
     40 H14        -2.1093   -2.6486    0.0091 H         1 <0>         0.1436
     41 H15        -3.5979   -1.4661   -0.8615 H         1 <0>         0.0580
     42 H16        -3.5809   -1.4757    0.9184 H         1 <0>         0.0580
     43 H17        -4.4440   -0.1881    0.0435 H         1 <0>         0.1039
     44 H18         1.8173    1.7300    0.8840 H         1 <0>         0.1124
     45 H19         1.8003    1.7396   -0.8958 H         1 <0>         0.1123
@<TRIPOS>BOND
     1    1    2 1
     2    1   27 1
     3    1   28 1
     4    1   29 1
     5    2    3 1
     6    2   30 1
     7    2   31 1
     8    3    4 1
     9    3   11 am
    10    4    5 1
    11    4   32 1
    12    4   33 1
    13    5    9 1
    14    5    6 2
    15    6    7 1
    16    6   34 1
    17    7    8 2
    18    7   35 1
    19    8    9 1
    20    8   10 1
    21   11   12 2
    22   11   13 1
    23   13   14 2
    24   13   36 1
    25   14   15 1
    26   14   37 1
    27   15   20 ar
    28   15   16 ar
    29   16   17 ar
    30   16   38 1
    31   17   18 ar
    32   17   39 1
    33   18   19 ar
    34   18   23 1
    35   19   20 ar
    36   19   21 1
    37   20   40 1
    38   21   22 1
    39   22   41 1
    40   22   42 1
    41   22   43 1
    42   23   24 1
    43   24   25 1
    44   24   44 1
    45   24   45 1
    46   25   26 3
@<TRIPOS>MOLECULE
ZINC40161748
   44    46     0     0     0
SMALL
USER_CHARGES

@<TRIPOS>ATOM
      1 C1         -0.0864    1.5348    0.0768 C.3       1 <0>        -0.0667
      2 C2         -0.0473    0.0288    0.0410 C.2       1 <0>         0.0616
      3 N1         -1.0519   -0.8114    0.0381 N.2       1 <0>        -0.5090
      4 C3         -0.8562   -2.1145    0.0045 C.2       1 <0>         0.0712
      5 C4          0.4317   -2.5427   -0.0268 C.2       1 <0>        -0.2079
      6 S1          1.2980   -0.9813   -0.0123 S.3       1 <0>         0.1202
      7 C5         -2.0094   -3.0847    0.0016 C.3       1 <0>        -0.0240
      8 S2         -2.5007   -3.4348   -1.7092 S.3       1 <0>         0.0129
      9 C6         -3.8400   -4.5678   -1.5447 C.2       1 <0>         0.1649
     10 N2         -4.3416   -5.0238   -0.4187 N.2       1 <0>        -0.2883
     11 N3         -5.3105   -5.8320   -0.6625 N.2       1 <0>        -0.2449
     12 C7         -5.4872   -5.9417   -1.9587 C.2       1 <0>         0.2199
     13 N4         -4.5544   -5.1312   -2.5634 N.pl3     1 <0>        -0.4513
     14 C8         -4.3648   -4.9191   -4.0005 C.3       1 <0>         0.1050
     15 C9         -3.4710   -6.0248   -4.5657 C.3       1 <0>        -0.1361
     16 C10        -3.2729   -5.8033   -6.0665 C.3       1 <0>         0.0671
     17 O1         -2.4381   -6.8360   -6.5944 O.3       1 <0>        -0.3887
     18 C11        -2.1890   -6.7221   -7.9969 C.3       1 <0>         0.0311
     19 C12        -6.5010   -6.7745   -2.6398 C.ar      1 <0>        -0.0106
     20 C13        -7.2896   -6.2293   -3.6542 C.ar      1 <0>        -0.0906
     21 C14        -8.2335   -7.0118   -4.2862 C.ar      1 <0>        -0.1121
     22 C15        -8.4001   -8.3351   -3.9169 C.ar      1 <0>        -0.0895
     23 C16        -7.6226   -8.8826   -2.9127 C.ar      1 <0>        -0.1082
     24 C17        -6.6701   -8.1120   -2.2751 C.ar      1 <0>        -0.0001
     25 Cl1        -5.6903   -8.8023   -1.0193 Cl        1 <0>        -0.0408
     26 H1          0.9312    1.9252    0.0636 H         1 <0>         0.0866
     27 H2         -0.6288    1.9049   -0.7933 H         1 <0>         0.0930
     28 H3         -0.5900    1.8637    0.9858 H         1 <0>         0.0933
     29 H4          0.8236   -3.5486   -0.0563 H         1 <0>         0.2015
     30 H5         -1.7061   -4.0111    0.4893 H         1 <0>         0.1144
     31 H6         -2.8516   -2.6496    0.5396 H         1 <0>         0.1144
     32 H7         -5.3323   -4.9421   -4.5020 H         1 <0>         0.1029
     33 H8         -3.8929   -3.9505   -4.1657 H         1 <0>         0.1052
     34 H9         -2.5034   -6.0018   -4.0642 H         1 <0>         0.0850
     35 H10        -3.9428   -6.9934   -4.4005 H         1 <0>         0.0819
     36 H11        -4.2405   -5.8263   -6.5680 H         1 <0>         0.0542
     37 H12        -2.8011   -4.8347   -6.2317 H         1 <0>         0.0554
     38 H13        -1.5483   -7.5425   -8.3199 H         1 <0>         0.0893
     39 H14        -3.1340   -6.7641   -8.5384 H         1 <0>         0.0433
     40 H15        -1.6946   -5.7725   -8.2021 H         1 <0>         0.0436
     41 H16        -7.1613   -5.1967   -3.9435 H         1 <0>         0.1318
     42 H17        -8.8444   -6.5906   -5.0710 H         1 <0>         0.1375
     43 H18        -9.1410   -8.9429   -4.4150 H         1 <0>         0.1393
     44 H19        -7.7577   -9.9160   -2.6293 H         1 <0>         0.1427
@<TRIPOS>BOND
     1    1    2 1
     2    1   26 1
     3    1   27 1
     4    1   28 1
     5    2    6 1
     6    2    3 2
     7    3    4 1
     8    4    5 2
     9    4    7 1
    10    5    6 1
    11    5   29 1
    12    7    8 1
    13    7   30 1
    14    7   31 1
    15    8    9 1
    16    9   13 1
    17    9   10 2
    18   10   11 1
    19   11   12 2
    20   12   13 1
    21   12   19 1
    22   13   14 1
    23   14   15 1
    24   14   32 1
    25   14   33 1
    26   15   16 1
    27   15   34 1
    28   15   35 1
    29   16   17 1
    30   16   36 1
    31   16   37 1
    32   17   18 1
    33   18   38 1
    34   18   39 1
    35   18   40 1
    36   19   24 ar
    37   19   20 ar
    38   20   21 ar
    39   20   41 1
    40   21   22 ar
    41   21   42 1
    42   22   23 ar
    43   22   43 1
    44   23   24 ar
    45   23   44 1
    46   24   25 1
@<TRIPOS>MOLECULE
ZINC58110463
   48    49     0     0     0
SMALL
USER_CHARGES

@<TRIPOS>ATOM
      1 C1         -0.0187    1.5258    0.0104 C.3       1 <0>        -0.1545
      2 C2          0.0021   -0.0041    0.0020 C.3       1 <0>        -0.1429
      3 C3          0.7421   -0.5109    1.2415 C.3       1 <0>         0.1303
      4 C4          0.6554   -2.0374    1.2986 C.3       1 <0>        -0.1407
      5 C5          1.2863   -2.5357    2.6004 C.3       1 <0>        -0.1504
      6 N1          2.1476   -0.1038    1.1716 N.pl3     1 <0>        -0.4355
      7 C6          2.8265    0.6775    2.0655 C.2       1 <0>         0.1773
      8 N2          4.0487    0.7937    1.6291 N.2       1 <0>        -0.2526
      9 N3          4.1880    0.1443    0.5288 N.2       1 <0>        -0.2886
     10 C7          3.0534   -0.4307    0.2036 C.2       1 <0>         0.1712
     11 S1          2.7551   -1.4318   -1.2153 S.3       1 <0>         0.0060
     12 C8          4.3534   -1.4655   -2.0725 C.3       1 <0>        -0.1118
     13 C9          4.2342   -2.3130   -3.3407 C.3       1 <0>        -0.1026
     14 C10         5.5823   -2.3415   -4.0637 C.3       1 <0>        -0.0183
     15 C11         5.4675   -3.1569   -5.2839 C.1       1 <0>         0.2021
     16 N4          5.3790   -3.7861   -6.2255 N.1       1 <0>        -0.4291
     17 C12         2.2648    1.2908    3.3222 C.3       1 <0>         0.1515
     18 O1          2.4392    0.3849    4.4135 O.3       1 <0>        -0.2955
     19 C13         1.9835    0.7880    5.6290 C.ar      1 <0>         0.1386
     20 C14         1.3759    2.0272    5.7672 C.ar      1 <0>        -0.1991
     21 C15         0.9131    2.4345    7.0035 C.ar      1 <0>        -0.0728
     22 C16         1.0552    1.6085    8.1033 C.ar      1 <0>        -0.1423
     23 C17         1.6607    0.3730    7.9693 C.ar      1 <0>        -0.0717
     24 C18         2.1202   -0.0422    6.7331 C.ar      1 <0>        -0.0664
     25 Cl1         2.8740   -1.5968    6.5635 Cl        1 <0>        -0.0528
     26 H1          1.0039    1.9031    0.0027 H         1 <0>         0.0513
     27 H2         -0.5459    1.8868   -0.8726 H         1 <0>         0.0668
     28 H3         -0.5289    1.8773    0.9072 H         1 <0>         0.0567
     29 H4         -1.0205   -0.3814    0.0098 H         1 <0>         0.0923
     30 H5          0.5123   -0.3556   -0.8948 H         1 <0>         0.0851
     31 H6          0.2852   -0.0874    2.1360 H         1 <0>         0.1072
     32 H7         -0.3900   -2.3436    1.2611 H         1 <0>         0.0905
     33 H8          1.1896   -2.4636    0.4495 H         1 <0>         0.0836
     34 H9          0.7521   -2.1095    3.4495 H         1 <0>         0.0580
     35 H10         1.2246   -3.6232    2.6410 H         1 <0>         0.0629
     36 H11         2.3318   -2.2295    2.6379 H         1 <0>         0.0536
     37 H12         4.6436   -0.4496   -2.3404 H         1 <0>         0.1034
     38 H13         5.1086   -1.8980   -1.4162 H         1 <0>         0.1034
     39 H14         3.9440   -3.3290   -3.0729 H         1 <0>         0.0849
     40 H15         3.4790   -1.8806   -3.9970 H         1 <0>         0.0848
     41 H16         5.8724   -1.3255   -4.3316 H         1 <0>         0.1149
     42 H17         6.3375   -2.7740   -3.4074 H         1 <0>         0.1149
     43 H18         2.7877    2.2229    3.5367 H         1 <0>         0.1043
     44 H19         1.2027    1.4934    3.1844 H         1 <0>         0.0839
     45 H20         1.2650    2.6734    4.9090 H         1 <0>         0.1368
     46 H21         0.4400    3.3994    7.1112 H         1 <0>         0.1340
     47 H22         0.6929    1.9293    9.0688 H         1 <0>         0.1356
     48 H23         1.7712   -0.2701    8.8299 H         1 <0>         0.1414
@<TRIPOS>BOND
     1    1    2 1
     2    1   26 1
     3    1   27 1
     4    1   28 1
     5    2    3 1
     6    2   29 1
     7    2   30 1
     8    3    4 1
     9    3    6 1
    10    3   31 1
    11    4    5 1
    12    4   32 1
    13    4   33 1
    14    5   34 1
    15    5   35 1
    16    5   36 1
    17    6   10 1
    18    6    7 1
    19    7    8 2
    20    7   17 1
    21    8    9 1
    22    9   10 2
    23   10   11 1
    24   11   12 1
    25   12   13 1
    26   12   37 1
    27   12   38 1
    28   13   14 1
    29   13   39 1
    30   13   40 1
    31   14   15 1
    32   14   41 1
    33   14   42 1
    34   15   16 3
    35   17   18 1
    36   17   43 1
    37   17   44 1
    38   18   19 1
    39   19   24 ar
    40   19   20 ar
    41   20   21 ar
    42   20   45 1
    43   21   22 ar
    44   21   46 1
    45   22   23 ar
    46   22   47 1
    47   23   24 ar
    48   23   48 1
    49   24   25 1
@<TRIPOS>MOLECULE
ZINC64927252
   49    52     0     0     0
SMALL
USER_CHARGES

@<TRIPOS>ATOM
      1 C1         -0.5700    1.6396    0.6086 C.3       1 <0>        -0.1491
      2 C2         -0.4109    0.1271    0.4421 C.3       1 <0>        -0.0958
      3 C3          0.3974   -0.4328    1.6143 C.3       1 <0>        -0.1531
      4 C4         -1.7918   -0.5310    0.4143 C.3       1 <0>        -0.1094
      5 C5         -1.6388   -2.0253    0.1234 C.3       1 <0>        -0.0347
      6 C6         -2.9990   -2.6736    0.0960 C.2       1 <0>         0.0670
      7 N1         -3.8008   -2.8395   -0.9262 N.2       1 <0>        -0.5055
      8 C7         -4.9709   -3.4312   -0.7912 C.2       1 <0>         0.0709
      9 C8         -5.3041   -3.8589    0.4535 C.2       1 <0>        -0.2084
     10 S1         -3.8530   -3.3664    1.3701 S.3       1 <0>         0.1205
     11 C9         -5.8966   -3.6236   -1.9647 C.3       1 <0>        -0.0306
     12 S2         -5.5405   -5.2140   -2.7613 S.3       1 <0>         0.0265
     13 C10        -6.6894   -5.2893   -4.0951 C.2       1 <0>         0.1685
     14 N2         -7.5808   -4.3745   -4.4097 N.2       1 <0>        -0.2882
     15 N3         -8.2541   -4.7500   -5.4379 N.2       1 <0>        -0.2553
     16 C11        -7.8345   -5.9265   -5.8426 C.2       1 <0>         0.2191
     17 N4         -6.8162   -6.3050   -4.9977 N.pl3     1 <0>        -0.4277
     18 C12        -6.0334   -7.5420   -5.0538 C.3       1 <0>         0.0335
     19 C13        -4.5147   -7.4241   -4.9102 C.3       1 <0>        -0.1582
     20 C14        -5.1312   -7.7526   -6.2714 C.3       1 <0>        -0.1597
     21 C15        -8.3546   -6.6968   -6.9914 C.ar      1 <0>         0.0318
     22 C16        -8.1075   -8.0703   -7.1081 C.ar      1 <0>        -0.1596
     23 C17        -8.6119   -8.7499   -8.1967 C.ar      1 <0>         0.1059
     24 N5         -9.3178   -8.1237   -9.1192 N.ar      1 <0>        -0.4761
     25 C18        -9.5739   -6.8310   -9.0480 C.ar      1 <0>         0.1066
     26 C19        -9.1133   -6.0750   -7.9908 C.ar      1 <0>        -0.1311
     27 H1          0.4138    2.1085    0.6285 H         1 <0>         0.0569
     28 H2         -1.1458    2.0385   -0.2265 H         1 <0>         0.0552
     29 H3         -1.0914    1.8495    1.5426 H         1 <0>         0.0551
     30 H4          0.1105   -0.0828   -0.4918 H         1 <0>         0.0736
     31 H5         -0.1240   -0.2230    2.5483 H         1 <0>         0.0561
     32 H6          0.5108   -1.5104    1.4957 H         1 <0>         0.0565
     33 H7          1.3812    0.0360    1.6342 H         1 <0>         0.0566
     34 H8         -2.2778   -0.3969    1.3807 H         1 <0>         0.0672
     35 H9         -2.3986   -0.0695   -0.3647 H         1 <0>         0.0709
     36 H10        -1.1529   -2.1595   -0.8430 H         1 <0>         0.0990
     37 H11        -1.0320   -2.4869    0.9024 H         1 <0>         0.0943
     38 H12        -6.1975   -4.3611    0.7940 H         1 <0>         0.2010
     39 H13        -6.9299   -3.6144   -1.6177 H         1 <0>         0.1133
     40 H14        -5.7469   -2.8165   -2.6818 H         1 <0>         0.1137
     41 H15        -6.5130   -8.4217   -4.6246 H         1 <0>         0.1462
     42 H16        -4.0980   -6.4261   -4.7740 H         1 <0>         0.1130
     43 H17        -3.9949   -8.2263   -4.3864 H         1 <0>         0.1223
     44 H18        -5.0170   -8.7708   -6.6431 H         1 <0>         0.1214
     45 H19        -5.1201   -6.9707   -7.0308 H         1 <0>         0.1049
     46 H20        -7.5303   -8.5892   -6.3572 H         1 <0>         0.1382
     47 H21        -8.4264   -9.8092   -8.2959 H         1 <0>         0.1626
     48 H22       -10.1561   -6.3597   -9.8260 H         1 <0>         0.1658
     49 H23        -9.3306   -5.0185   -7.9366 H         1 <0>         0.1484
@<TRIPOS>BOND
     1    1    2 1
     2    1   27 1
     3    1   28 1
     4    1   29 1
     5    2    3 1
     6    2    4 1
     7    2   30 1
     8    3   31 1
     9    3   32 1
    10    3   33 1
    11    4    5 1
    12    4   34 1
    13    4   35 1
    14    5    6 1
    15    5   36 1
    16    5   37 1
    17    6   10 1
    18    6    7 2
    19    7    8 1
    20    8    9 2
    21    8   11 1
    22    9   10 1
    23    9   38 1
    24   11   12 1
    25   11   39 1
    26   11   40 1
    27   12   13 1
    28   13   17 1
    29   13   14 2
    30   14   15 1
    31   15   16 2
    32   16   17 1
    33   16   21 1
    34   17   18 1
    35   18   20 1
    36   18   19 1
    37   18   41 1
    38   19   20 1
    39   19   42 1
    40   19   43 1
    41   20   44 1
    42   20   45 1
    43   21   26 ar
    44   21   22 ar
    45   22   23 ar
    46   22   46 1
    47   23   24 ar
    48   23   47 1
    49   24   25 ar
    50   25   26 ar
    51   25   48 1
    52   26   49 1
@<TRIPOS>MOLECULE
ZINC02981410
   46    46     0     0     0
SMALL
USER_CHARGES
ethyl 2-[(2,6-dimethylphenyl)-[3,3,3-trifluoro-2-(trifluoromethyl)propanoyl]-amino]propanoate
@<TRIPOS>ATOM
      1 C1          3.3420   -5.5422   -4.5085 C.3       1 <0>        -0.1530
      2 C2          3.3620   -4.5381   -3.3543 C.3       1 <0>         0.0641
      3 O1          2.0254   -4.4093   -2.8017 O.3       1 <0>        -0.3559
      4 C3          1.8702   -3.5602   -1.7737 C.2       1 <0>         0.4496
      5 O2          2.8198   -2.9450   -1.3497 O.2       1 <0>        -0.4740
      6 C4          0.5117   -3.3743   -1.1485 C.3       1 <0>         0.1634
      7 H1         -0.2157   -3.1353   -1.9243 H         1 <0>         0.1334
      8 C5          0.0957   -4.6647   -0.4395 C.3       1 <0>        -0.1667
      9 N1          0.5671   -2.2792   -0.1769 N.am      1 <0>        -0.5396
     10 C6         -0.2655   -1.1651   -0.3303 C.ar      1 <0>         0.0936
     11 C7         -1.3422   -0.9778    0.5266 C.ar      1 <0>        -0.0852
     12 C8         -2.1618    0.1231    0.3729 C.ar      1 <0>        -0.1129
     13 C9         -1.9112    1.0384   -0.6329 C.ar      1 <0>        -0.0948
     14 C10        -0.8399    0.8548   -1.4878 C.ar      1 <0>        -0.1113
     15 C11        -0.0166   -0.2441   -1.3394 C.ar      1 <0>        -0.0577
     16 C12         1.1510   -0.4432   -2.2711 C.3       1 <0>        -0.1322
     17 C13        -1.6162   -1.9751    1.6227 C.3       1 <0>        -0.1331
     18 C14         1.4199   -2.3449    0.8647 C.2       1 <0>         0.5395
     19 O3          2.2228   -3.2513    0.9348 O.2       1 <0>        -0.4506
     20 C15         1.3759   -1.2922    1.9421 C.3       1 <0>        -0.2369
     21 C16         1.6016   -1.9483    3.3057 C.3       1 <0>         0.4794
     22 F1          2.8510   -2.5776    3.3194 F         1 <0>        -0.1475
     23 F2          1.5608   -0.9710    4.3059 F         1 <0>        -0.1587
     24 F3          0.5994   -2.8962    3.5387 F         1 <0>        -0.1604
     25 C17         2.4719   -0.2555    1.6873 C.3       1 <0>         0.4762
     26 F4          2.1620    0.4776    0.5368 F         1 <0>        -0.1567
     27 F5          2.5586    0.6103    2.7827 F         1 <0>        -0.1600
     28 F6          3.6974   -0.9066    1.5093 F         1 <0>        -0.1507
     29 H2          2.6607   -5.1914   -5.2836 H         1 <0>         0.0670
     30 H3          4.3454   -5.6389   -4.9234 H         1 <0>         0.0816
     31 H4          3.0059   -6.5118   -4.1409 H         1 <0>         0.0678
     32 H5          3.6981   -3.5686   -3.7219 H         1 <0>         0.0702
     33 H6          4.0433   -4.8890   -2.5792 H         1 <0>         0.0724
     34 H7         -0.9165   -4.5552   -0.0501 H         1 <0>         0.0799
     35 H8          0.1253   -5.4936   -1.1466 H         1 <0>         0.0893
     36 H9          0.7819   -4.8645    0.3835 H         1 <0>         0.0806
     37 H10        -3.0019    0.2670    1.0361 H         1 <0>         0.1344
     38 H11        -2.5536    1.8985   -0.7511 H         1 <0>         0.1324
     39 H12        -0.6471    1.5712   -2.2726 H         1 <0>         0.1326
     40 H13         0.8318   -1.0279   -3.1338 H         1 <0>         0.0709
     41 H14         1.5185    0.5270   -2.6056 H         1 <0>         0.0753
     42 H15         1.9473   -0.9726   -1.7479 H         1 <0>         0.0803
     43 H16        -2.2831   -2.7519    1.2487 H         1 <0>         0.0858
     44 H17        -0.6782   -2.4263    1.9463 H         1 <0>         0.0612
     45 H18        -2.0856   -1.4684    2.4659 H         1 <0>         0.0797
     46 H19         0.4025   -0.8019    1.9315 H         1 <0>         0.1774
@<TRIPOS>BOND
     1    1    2 1
     2    1   29 1
     3    1   30 1
     4    1   31 1
     5    2    3 1
     6    2   32 1
     7    2   33 1
     8    3    4 1
     9    4    5 2
    10    4    6 1
    11    6    7 1
    12    6    8 1
    13    6    9 1
    14    8   34 1
    15    8   35 1
    16    8   36 1
    17    9   10 1
    18    9   18 am
    19   10   15 ar
    20   10   11 ar
    21   11   12 ar
    22   11   17 1
    23   12   13 ar
    24   12   37 1
    25   13   14 ar
    26   13   38 1
    27   14   15 ar
    28   14   39 1
    29   15   16 1
    30   16   40 1
    31   16   41 1
    32   16   42 1
    33   17   43 1
    34   17   44 1
    35   17   45 1
    36   18   19 2
    37   18   20 1
    38   20   21 1
    39   20   25 1
    40   20   46 1
    41   21   22 1
    42   21   23 1
    43   21   24 1
    44   25   26 1
    45   25   27 1
    46   25   28 1
@<TRIPOS>MOLECULE
ZINC15831746
   49    51     0     0     0
SMALL
USER_CHARGES
4-butoxy-N-(2-furylmethyl)-N-(2-thienylmethyl)benzamide
@<TRIPOS>ATOM
      1 C1          9.8393    0.3230    0.3273 C.3       1 <0>        -0.1531
      2 C2          8.3406    0.5316    0.1013 C.3       1 <0>        -0.1219
      3 C3          7.6544    0.7958    1.4430 C.3       1 <0>        -0.1204
      4 C4          6.1556    1.0044    1.2170 C.3       1 <0>         0.0551
      5 O1          5.5147    1.2512    2.4702 O.3       1 <0>        -0.3093
      6 C5          4.1738    1.4586    2.4461 C.ar      1 <0>         0.1581
      7 C6          3.4890    1.7042    3.6305 C.ar      1 <0>        -0.1545
      8 C7          2.1283    1.9147    3.6103 C.ar      1 <0>        -0.0246
      9 C8          1.4361    1.8817    2.3970 C.ar      1 <0>        -0.1733
     10 C9          2.1273    1.6292    1.2091 C.ar      1 <0>        -0.0493
     11 C10         3.4889    1.4253    1.2371 C.ar      1 <0>        -0.2113
     12 C11        -0.0225    2.1068    2.3709 C.2       1 <0>         0.5707
     13 O2         -0.7454    1.4979    3.1356 O.2       1 <0>        -0.5176
     14 N1         -0.5529    2.9875    1.4993 N.am      1 <0>        -0.6014
     15 C12        -1.9801    3.3120    1.5630 C.3       1 <0>         0.1996
     16 C13        -2.7510    2.3617    0.6835 C.2       1 <0>        -0.0419
     17 C14        -3.2714    1.1819    1.0666 C.2       1 <0>        -0.1789
     18 C15        -3.9059    0.6263   -0.0681 C.2       1 <0>        -0.2183
     19 C16        -3.7353    1.4998   -1.0768 C.2       1 <0>        -0.0343
     20 O3         -3.0401    2.5517   -0.6142 O.3       1 <0>        -0.1629
     21 C17         0.2978    3.6202    0.4882 C.3       1 <0>         0.1802
     22 C18         0.0061    3.0179   -0.8620 C.2       1 <0>        -0.1824
     23 C19        -0.9032    3.4036   -1.7903 C.2       1 <0>        -0.1068
     24 C20        -0.9941    2.6957   -2.9741 C.2       1 <0>        -0.1552
     25 C21        -0.1786    1.6304   -3.1672 C.2       1 <0>        -0.1693
     26 S1          0.7631    1.6064   -1.6506 S.3       1 <0>         0.0294
     27 H1         10.3282    0.1347   -0.6285 H         1 <0>         0.0580
     28 H2         10.2657    1.2162    0.7838 H         1 <0>         0.0564
     29 H3          9.9918   -0.5307    0.9877 H         1 <0>         0.0564
     30 H4          7.9142   -0.3617   -0.3552 H         1 <0>         0.0653
     31 H5          8.1881    1.3852   -0.5591 H         1 <0>         0.0654
     32 H6          8.0808    1.6890    1.8995 H         1 <0>         0.0754
     33 H7          7.8069   -0.0579    2.1034 H         1 <0>         0.0753
     34 H8          5.7292    0.1111    0.7605 H         1 <0>         0.0655
     35 H9          6.0031    1.8580    0.5566 H         1 <0>         0.0658
     36 H10         4.0248    1.7296    4.5679 H         1 <0>         0.1410
     37 H11         1.5970    2.1055    4.5310 H         1 <0>         0.1402
     38 H12         1.5950    1.5984    0.2699 H         1 <0>         0.1275
     39 H13         4.0246    1.2349    0.3188 H         1 <0>         0.1361
     40 H14        -2.3283    3.2188    2.5916 H         1 <0>         0.1171
     41 H15        -2.1360    4.3341    1.2179 H         1 <0>         0.0969
     42 H16        -3.2148    0.7430    2.0518 H         1 <0>         0.1480
     43 H17        -4.4272   -0.3184   -0.1160 H         1 <0>         0.1449
     44 H18        -4.1001    1.3783   -2.0860 H         1 <0>         0.1971
     45 H19         1.3454    3.4563    0.7406 H         1 <0>         0.1101
     46 H20         0.0941    4.6907    0.4603 H         1 <0>         0.1032
     47 H21        -1.5451    4.2530   -1.6090 H         1 <0>         0.1326
     48 H22        -1.7073    2.9844   -3.7320 H         1 <0>         0.1321
     49 H23        -0.1152    0.9677   -4.0177 H         1 <0>         0.1832
@<TRIPOS>BOND
     1    1    2 1
     2    1   27 1
     3    1   28 1
     4    1   29 1
     5    2    3 1
     6    2   30 1
     7    2   31 1
     8    3    4 1
     9    3   32 1
    10    3   33 1
    11    4    5 1
    12    4   34 1
    13    4   35 1
    14    5    6 1
    15    6   11 ar
    16    6    7 ar
    17    7    8 ar
    18    7   36 1
    19    8    9 ar
    20    8   37 1
    21    9   10 ar
    22    9   12 1
    23   10   11 ar
    24   10   38 1
    25   11   39 1
    26   12   13 2
    27   12   14 am
    28   14   15 1
    29   14   21 1
    30   15   16 1
    31   15   40 1
    32   15   41 1
    33   16   20 1
    34   16   17 2
    35   17   18 1
    36   17   42 1
    37   18   19 2
    38   18   43 1
    39   19   20 1
    40   19   44 1
    41   21   22 1
    42   21   45 1
    43   21   46 1
    44   22   26 1
    45   22   23 2
    46   23   24 1
    47   23   47 1
    48   24   25 2
    49   24   48 1
    50   25   26 1
    51   25   49 1
@<TRIPOS>MOLECULE
ZINC36105622
   48    50     0     0     0
SMALL
USER_CHARGES

@<TRIPOS>ATOM
      1 C1         -0.1231    1.6425   -0.8669 C.3       1 <0>        -0.1532
      2 C2         -0.2108    0.1167   -0.7939 C.3       1 <0>        -0.1475
      3 C3          0.9635   -0.4987   -1.5576 C.3       1 <0>         0.0917
      4 N1          0.9647   -1.9508   -1.3639 N.am      1 <0>        -0.5991
      5 C4         -0.0267   -2.7823   -2.0510 C.3       1 <0>         0.1922
      6 C5          0.5192   -3.2135   -3.3878 C.2       1 <0>         0.0338
      7 C6          1.1379   -4.4112   -3.5490 C.2       1 <0>        -0.1846
      8 S1          1.5425   -4.3413   -5.2868 S.3       1 <0>         0.1429
      9 C7          0.8926   -2.8237   -5.6144 C.2       1 <0>         0.0274
     10 N2          0.4129   -2.4476   -4.4553 N.2       1 <0>        -0.4806
     11 C8          0.8645   -2.0804   -6.9251 C.3       1 <0>         0.1549
     12 O1          2.0390   -1.2748   -7.0411 O.3       1 <0>        -0.3044
     13 C9          2.1702   -0.5347   -8.1736 C.ar      1 <0>         0.1367
     14 C10         1.1859   -0.5788   -9.1501 C.ar      1 <0>        -0.1974
     15 C11         1.3210    0.1740  -10.3004 C.ar      1 <0>        -0.0672
     16 C12         2.4376    0.9714  -10.4792 C.ar      1 <0>        -0.0717
     17 C13         3.4208    1.0164   -9.5066 C.ar      1 <0>        -0.0683
     18 C14         3.2860    0.2701   -8.3520 C.ar      1 <0>        -0.1358
     19 Cl1         2.6055    1.9161  -11.9259 Cl        1 <0>        -0.0674
     20 C15         1.8778   -2.5218   -0.5536 C.2       1 <0>         0.5619
     21 O2          1.9238   -3.7318   -0.4472 O.2       1 <0>        -0.5309
     22 C16         2.8236   -1.6765    0.2059 C.ar      1 <0>        -0.1347
     23 C17         2.4147   -0.4365    0.6994 C.ar      1 <0>        -0.1050
     24 C18         3.3020    0.3472    1.4077 C.ar      1 <0>        -0.1283
     25 C19         4.5948   -0.0933    1.6289 C.ar      1 <0>        -0.0944
     26 C20         5.0066   -1.3212    1.1421 C.ar      1 <0>        -0.1265
     27 C21         4.1274   -2.1174    0.4376 C.ar      1 <0>        -0.0638
     28 H1          0.8144    1.9743   -0.4207 H         1 <0>         0.0575
     29 H2         -0.1616    1.9592   -1.9092 H         1 <0>         0.0597
     30 H3         -0.9597    2.0809   -0.3228 H         1 <0>         0.0615
     31 H4         -0.1723   -0.1999    0.2484 H         1 <0>         0.0706
     32 H5         -1.1483   -0.2151   -1.2401 H         1 <0>         0.0721
     33 H6          0.8641   -0.2739   -2.6195 H         1 <0>         0.0830
     34 H7          1.8986   -0.0815   -1.1839 H         1 <0>         0.0962
     35 H8         -0.2443   -3.6626   -1.4463 H         1 <0>         0.1038
     36 H9         -0.9414   -2.2086   -2.2000 H         1 <0>         0.0968
     37 H10         1.3317   -5.1902   -2.8265 H         1 <0>         0.2032
     38 H11         0.8313   -2.7950   -7.7474 H         1 <0>         0.0924
     39 H12        -0.0187   -1.4426   -6.9621 H         1 <0>         0.0982
     40 H13         0.3145   -1.2016   -9.0112 H         1 <0>         0.1383
     41 H14         0.5549    0.1399  -11.0608 H         1 <0>         0.1383
     42 H15         4.2917    1.6391   -9.6481 H         1 <0>         0.1423
     43 H16         4.0513    0.3092   -7.5909 H         1 <0>         0.1413
     44 H17         1.4060   -0.0912    0.5268 H         1 <0>         0.1458
     45 H18         2.9869    1.3068    1.7901 H         1 <0>         0.1294
     46 H19         5.2856    0.5242    2.1837 H         1 <0>         0.1278
     47 H20         6.0172   -1.6591    1.3179 H         1 <0>         0.1303
     48 H21         4.4486   -3.0778    0.0623 H         1 <0>         0.1309
@<TRIPOS>BOND
     1    1    2 1
     2    1   28 1
     3    1   29 1
     4    1   30 1
     5    2    3 1
     6    2   31 1
     7    2   32 1
     8    3    4 1
     9    3   33 1
    10    3   34 1
    11    4    5 1
    12    4   20 am
    13    5    6 1
    14    5   35 1
    15    5   36 1
    16    6   10 1
    17    6    7 2
    18    7    8 1
    19    7   37 1
    20    8    9 1
    21    9   10 2
    22    9   11 1
    23   11   12 1
    24   11   38 1
    25   11   39 1
    26   12   13 1
    27   13   18 ar
    28   13   14 ar
    29   14   15 ar
    30   14   40 1
    31   15   16 ar
    32   15   41 1
    33   16   17 ar
    34   16   19 1
    35   17   18 ar
    36   17   42 1
    37   18   43 1
    38   20   21 2
    39   20   22 1
    40   22   27 ar
    41   22   23 ar
    42   23   24 ar
    43   23   44 1
    44   24   25 ar
    45   24   45 1
    46   25   26 ar
    47   25   46 1
    48   26   27 ar
    49   26   47 1
    50   27   48 1
@<TRIPOS>MOLECULE
ZINC58060241
   46    46     0     0     0
SMALL
USER_CHARGES

@<TRIPOS>ATOM
      1 C1         -0.0173    1.4248    0.0099 C.3       1 <0>         0.0323
      2 O1          0.0021   -0.0041    0.0020 O.3       1 <0>        -0.3854
      3 C2          0.6734   -0.5824    1.1231 C.3       1 <0>         0.0372
      4 C3          0.6327   -2.1077    1.0107 C.3       1 <0>         0.1080
      5 N1          1.4013   -2.5316   -0.1622 N.am      1 <0>        -0.6057
      6 C4          2.8311   -2.8241   -0.0345 C.3       1 <0>         0.1170
      7 C5          3.0206   -4.3037    0.3059 C.3       1 <0>         0.0423
      8 O2          2.5668   -5.1056   -0.7863 O.3       1 <0>        -0.3719
      9 C6          2.7002   -6.5118   -0.5698 C.3       1 <0>         0.0309
     10 C7          0.7930   -2.6525   -1.3588 C.2       1 <0>         0.5594
     11 O3          1.4315   -3.0046   -2.3332 O.2       1 <0>        -0.5203
     12 C8         -0.6361   -2.3602   -1.4865 C.2       1 <0>        -0.1663
     13 C9         -1.2445   -2.4811   -2.6834 C.2       1 <0>        -0.0469
     14 C10        -2.6812   -2.1872   -2.8118 C.ar      1 <0>        -0.0576
     15 C11        -3.4170   -1.7768   -1.6958 C.ar      1 <0>        -0.0295
     16 C12        -4.7624   -1.5034   -1.8241 C.ar      1 <0>        -0.1818
     17 C13        -5.3847   -1.6342   -3.0534 C.ar      1 <0>        -0.0175
     18 C14        -4.6632   -2.0399   -4.1626 C.ar      1 <0>        -0.1814
     19 C15        -3.3159   -2.3114   -4.0516 C.ar      1 <0>        -0.0209
     20 C16        -5.3507   -2.1796   -5.4964 C.3       1 <0>         0.5124
     21 F1         -5.2817   -0.9644   -6.1861 F         1 <0>        -0.1708
     22 F2         -4.7175   -3.1774   -6.2451 F         1 <0>        -0.1711
     23 F3         -6.6911   -2.5267   -5.2961 F         1 <0>        -0.1723
     24 C17        -5.5575   -1.0614   -0.6225 C.3       1 <0>         0.5124
     25 F4         -4.7190   -1.0038    0.4959 F         1 <0>        -0.1727
     26 F5         -6.1014    0.2048   -0.8633 F         1 <0>        -0.1712
     27 F6         -6.5900   -1.9750   -0.3848 F         1 <0>        -0.1711
     28 H1          1.0053    1.8021    0.0021 H         1 <0>         0.0410
     29 H2         -0.5445    1.7859   -0.8732 H         1 <0>         0.0862
     30 H3         -0.5275    1.7763    0.9067 H         1 <0>         0.0425
     31 H4          1.7103   -0.2468    1.1385 H         1 <0>         0.0543
     32 H5          0.1775   -0.2725    2.0430 H         1 <0>         0.0628
     33 H6          1.0656   -2.5499    1.9080 H         1 <0>         0.0965
     34 H7         -0.4012   -2.4369    0.9060 H         1 <0>         0.0898
     35 H8          3.3332   -2.6007   -0.9758 H         1 <0>         0.0948
     36 H9          3.2578   -2.2111    0.7594 H         1 <0>         0.0915
     37 H10         4.0767   -4.5022    0.4882 H         1 <0>         0.0582
     38 H11         2.4455   -4.5476    1.1992 H         1 <0>         0.0483
     39 H12         3.7497   -6.7562   -0.4056 H         1 <0>         0.0397
     40 H13         2.1186   -6.8015    0.3053 H         1 <0>         0.0374
     41 H14         2.3342   -7.0504   -1.4439 H         1 <0>         0.0853
     42 H15        -1.2027   -2.0477   -0.6219 H         1 <0>         0.1335
     43 H16        -0.6778   -2.7936   -3.5481 H         1 <0>         0.1439
     44 H17        -2.9329   -1.6746   -0.7358 H         1 <0>         0.1534
     45 H18        -6.4388   -1.4189   -3.1475 H         1 <0>         0.1502
     46 H19        -2.7532   -2.6235   -4.9190 H         1 <0>         0.1533
@<TRIPOS>BOND
     1    1    2 1
     2    1   28 1
     3    1   29 1
     4    1   30 1
     5    2    3 1
     6    3    4 1
     7    3   31 1
     8    3   32 1
     9    4    5 1
    10    4   33 1
    11    4   34 1
    12    5    6 1
    13    5   10 am
    14    6    7 1
    15    6   35 1
    16    6   36 1
    17    7    8 1
    18    7   37 1
    19    7   38 1
    20    8    9 1
    21    9   39 1
    22    9   40 1
    23    9   41 1
    24   10   11 2
    25   10   12 1
    26   12   13 2
    27   12   42 1
    28   13   14 1
    29   13   43 1
    30   14   19 ar
    31   14   15 ar
    32   15   16 ar
    33   15   44 1
    34   16   17 ar
    35   16   24 1
    36   17   18 ar
    37   17   45 1
    38   18   19 ar
    39   18   20 1
    40   19   46 1
    41   20   21 1
    42   20   22 1
    43   20   23 1
    44   24   25 1
    45   24   26 1
    46   24   27 1
@<TRIPOS>MOLECULE
ZINC65760045
   44    45     0     0     0
SMALL
USER_CHARGES

@<TRIPOS>ATOM
      1 C1         -0.0187    1.5258    0.0104 C.3       1 <0>        -0.1539
      2 C2          0.0021   -0.0041    0.0020 C.3       1 <0>         0.0515
      3 O1          0.6932   -0.4774    1.1597 O.3       1 <0>        -0.3115
      4 C3          0.8019   -1.8237    1.3056 C.ar      1 <0>         0.1536
      5 C4          0.2580   -2.6702    0.3485 C.ar      1 <0>        -0.2091
      6 C5          0.3662   -4.0368    0.4929 C.ar      1 <0>        -0.0475
      7 C6          1.0237   -4.5695    1.6032 C.ar      1 <0>        -0.0588
      8 C7          1.5691   -3.7153    2.5631 C.ar      1 <0>        -0.0245
      9 C8          1.4617   -2.3498    2.4086 C.ar      1 <0>        -0.1539
     10 C9          1.1416   -6.0344    1.7621 C.2       1 <0>         0.1740
     11 N1          1.7143   -6.7320    2.7333 N.2       1 <0>        -0.4779
     12 C10         1.7256   -8.0446    2.7137 C.2       1 <0>         0.0765
     13 C11         1.1422   -8.7118    1.6834 C.2       1 <0>        -0.2034
     14 S1          0.5433   -7.3428    0.7006 S.3       1 <0>         0.0039
     15 C12         2.3849   -8.8104    3.8317 C.3       1 <0>        -0.0681
     16 C13         3.8102   -8.3461    3.9863 C.2       1 <0>         0.5180
     17 O2          4.2476   -7.4788    3.2602 O.2       1 <0>        -0.5081
     18 N2          4.5988   -8.8948    4.9316 N.am      1 <0>        -0.6212
     19 C14         4.0705   -9.9425    5.8087 C.3       1 <0>         0.0727
     20 C15         5.9844   -8.4434    5.0819 C.3       1 <0>         0.1158
     21 C16         6.0373   -7.2814    6.0758 C.3       1 <0>        -0.1848
     22 C17         7.4844   -6.8100    6.2329 C.3       1 <0>         0.4573
     23 F1          7.9737   -6.3857    4.9928 F         1 <0>        -0.1796
     24 F2          7.5327   -5.7475    7.1417 F         1 <0>        -0.1823
     25 F3          8.2699   -7.8659    6.7076 F         1 <0>        -0.1840
     26 H1          1.0039    1.9031    0.0027 H         1 <0>         0.0676
     27 H2         -0.5459    1.8868   -0.8726 H         1 <0>         0.0803
     28 H3         -0.5289    1.8773    0.9072 H         1 <0>         0.0675
     29 H4         -1.0205   -0.3814    0.0098 H         1 <0>         0.0651
     30 H5          0.5123   -0.3556   -0.8948 H         1 <0>         0.0651
     31 H6         -0.2508   -2.2573   -0.5100 H         1 <0>         0.1367
     32 H7         -0.0574   -4.6944   -0.2517 H         1 <0>         0.1301
     33 H8          2.0782   -4.1237    3.4236 H         1 <0>         0.1429
     34 H9          1.8873   -1.6882    3.1486 H         1 <0>         0.1400
     35 H10         1.0600   -9.7743    1.5083 H         1 <0>         0.1989
     36 H11         1.8428   -8.6353    4.7610 H         1 <0>         0.1109
     37 H12         2.3728   -9.8753    3.5991 H         1 <0>         0.1105
     38 H13         4.2454  -10.9182    5.3554 H         1 <0>         0.0627
     39 H14         4.5731   -9.8953    6.7747 H         1 <0>         0.0754
     40 H15         2.9998   -9.7935    5.9485 H         1 <0>         0.0765
     41 H16         6.5964   -9.2661    5.4518 H         1 <0>         0.0918
     42 H17         6.3657   -8.1128    4.1158 H         1 <0>         0.0978
     43 H18         5.4253   -6.4588    5.7059 H         1 <0>         0.1146
     44 H19         5.6560   -7.6121    7.0420 H         1 <0>         0.1106
@<TRIPOS>BOND
     1    1    2 1
     2    1   26 1
     3    1   27 1
     4    1   28 1
     5    2    3 1
     6    2   29 1
     7    2   30 1
     8    3    4 1
     9    4    9 ar
    10    4    5 ar
    11    5    6 ar
    12    5   31 1
    13    6    7 ar
    14    6   32 1
    15    7    8 ar
    16    7   10 1
    17    8    9 ar
    18    8   33 1
    19    9   34 1
    20   10   14 1
    21   10   11 2
    22   11   12 1
    23   12   13 2
    24   12   15 1
    25   13   14 1
    26   13   35 1
    27   15   16 1
    28   15   36 1
    29   15   37 1
    30   16   17 2
    31   16   18 am
    32   18   19 1
    33   18   20 1
    34   19   38 1
    35   19   39 1
    36   19   40 1
    37   20   21 1
    38   20   41 1
    39   20   42 1
    40   21   22 1
    41   21   43 1
    42   21   44 1
    43   22   23 1
    44   22   24 1
    45   22   25 1
@<TRIPOS>MOLECULE
ZINC02444778
   51    54     0     0     0
SMALL
USER_CHARGES
2-[[5-(2-chlorophenyl)-4-(4-ethoxyphenyl)-1,2,4-triazol-3-yl]sulfanyl]-1-phenyl-ethanone
@<TRIPOS>ATOM
      1 C1          4.4213    8.5611   -2.1079 C.3       1 <0>        -0.1540
      2 C2          3.9373    7.1097   -2.1004 C.3       1 <0>         0.0510
      3 O1          3.3104    6.8231   -0.8486 O.3       1 <0>        -0.3085
      4 C3          2.8211    5.5664   -0.6768 C.ar      1 <0>         0.1560
      5 C4          2.2002    5.2209    0.5148 C.ar      1 <0>        -0.1369
      6 C5          1.7031    3.9447    0.6897 C.ar      1 <0>        -0.0567
      7 C6          1.8250    3.0071   -0.3267 C.ar      1 <0>         0.0567
      8 C7          2.4515    3.3516   -1.5167 C.ar      1 <0>        -0.0486
      9 C8          2.9432    4.6298   -1.6929 C.ar      1 <0>        -0.1959
     10 N1          1.3205    1.7099   -0.1492 N.pl3     1 <0>        -0.4029
     11 C9          2.0424    0.5396   -0.0655 C.2       1 <0>         0.2276
     12 N2          1.1779   -0.4349    0.0994 N.2       1 <0>        -0.2431
     13 N3         -0.0171    0.0368    0.1244 N.2       1 <0>        -0.2871
     14 C10         0.0088    1.3427   -0.0230 C.2       1 <0>         0.1553
     15 S1         -1.3861    2.4186   -0.0590 S.3       1 <0>         0.0724
     16 C11        -2.7187    1.2129    0.1568 C.3       1 <0>        -0.1609
     17 C12        -4.0462    1.9261    0.1573 C.2       1 <0>         0.4174
     18 O2         -4.0873    3.1307    0.0249 O.2       1 <0>        -0.4335
     19 C13        -5.2927    1.1606    0.3186 C.ar      1 <0>        -0.1673
     20 C14        -5.2498   -0.2295    0.4658 C.ar      1 <0>        -0.0702
     21 C15        -6.4218   -0.9390    0.6222 C.ar      1 <0>        -0.1312
     22 C16        -7.6390   -0.2803    0.6217 C.ar      1 <0>        -0.0822
     23 C17        -7.6902    1.0945    0.4708 C.ar      1 <0>        -0.1322
     24 C18        -6.5267    1.8189    0.3196 C.ar      1 <0>        -0.0558
     25 C19         3.5121    0.4062   -0.1460 C.ar      1 <0>        -0.0137
     26 C20         4.3347    1.2480    0.6044 C.ar      1 <0>        -0.0778
     27 C21         5.7057    1.1184    0.5247 C.ar      1 <0>        -0.1136
     28 C22         6.2667    0.1564   -0.2969 C.ar      1 <0>        -0.0881
     29 C23         5.4584   -0.6816   -1.0436 C.ar      1 <0>        -0.1112
     30 C24         4.0841   -0.5666   -0.9690 C.ar      1 <0>        -0.0003
     31 Cl1         3.0705   -1.6241   -1.9007 Cl        1 <0>        -0.0424
     32 H1          4.8995    8.7797   -3.0627 H         1 <0>         0.0814
     33 H2          3.5711    9.2284   -1.9662 H         1 <0>         0.0685
     34 H3          5.1380    8.7093   -1.3002 H         1 <0>         0.0681
     35 H4          4.7875    6.4425   -2.2421 H         1 <0>         0.0658
     36 H5          3.2205    6.9615   -2.9081 H         1 <0>         0.0662
     37 H6          2.1053    5.9504    1.3055 H         1 <0>         0.1464
     38 H7          1.2197    3.6758    1.6174 H         1 <0>         0.1403
     39 H8          2.5506    2.6212   -2.3060 H         1 <0>         0.1321
     40 H9          3.4269    4.8991   -2.6202 H         1 <0>         0.1411
     41 H10        -2.6954    0.5525   -0.5937 H         1 <0>         0.1183
     42 H11        -2.5863    0.6908    1.1044 H         1 <0>         0.1349
     43 H12        -4.3010   -0.7453    0.4620 H         1 <0>         0.1350
     44 H13        -6.3900   -2.0120    0.7408 H         1 <0>         0.1324
     45 H14        -8.5538   -0.8421    0.7400 H         1 <0>         0.1299
     46 H15        -8.6439    1.6013    0.4718 H         1 <0>         0.1320
     47 H16        -6.5682    2.8916    0.2020 H         1 <0>         0.1360
     48 H17         3.8987    1.9996    1.2459 H         1 <0>         0.1309
     49 H18         6.3429    1.7690    1.1052 H         1 <0>         0.1368
     50 H19         7.3408    0.0597   -0.3555 H         1 <0>         0.1390
     51 H20         5.9027   -1.4300   -1.6830 H         1 <0>         0.1424
@<TRIPOS>BOND
     1    1    2 1
     2    1   32 1
     3    1   33 1
     4    1   34 1
     5    2    3 1
     6    2   35 1
     7    2   36 1
     8    3    4 1
     9    4    9 ar
    10    4    5 ar
    11    5    6 ar
    12    5   37 1
    13    6    7 ar
    14    6   38 1
    15    7    8 ar
    16    7   10 1
    17    8    9 ar
    18    8   39 1
    19    9   40 1
    20   10   14 1
    21   10   11 1
    22   11   12 2
    23   11   25 1
    24   12   13 1
    25   13   14 2
    26   14   15 1
    27   15   16 1
    28   16   17 1
    29   16   41 1
    30   16   42 1
    31   17   18 2
    32   17   19 1
    33   19   24 ar
    34   19   20 ar
    35   20   21 ar
    36   20   43 1
    37   21   22 ar
    38   21   44 1
    39   22   23 ar
    40   22   45 1
    41   23   24 ar
    42   23   46 1
    43   24   47 1
    44   25   30 ar
    45   25   26 ar
    46   26   27 ar
    47   26   48 1
    48   27   28 ar
    49   27   49 1
    50   28   29 ar
    51   28   50 1
    52   29   30 ar
    53   29   51 1
    54   30   31 1
@<TRIPOS>MOLECULE
ZINC17273668
   55    59     0     0     0
SMALL
USER_CHARGES
2-[[4-cyclopropyl-5-(2-thienylmethyl)-1,2,4-triazol-3-yl]sulfanyl]-1-[1-(3-fluorophenyl)-2,5-dimethyl-pyrrol-3-yl]ethanone
@<TRIPOS>ATOM
      1 C1          4.4107   10.3132    2.3961 C.3       1 <0>        -0.0879
      2 C2          3.0936    9.5812    2.3760 C.2       1 <0>         0.0181
      3 C3          2.9140    8.3124    1.9727 C.2       1 <0>        -0.1422
      4 C4          1.4809    8.0268    2.1268 C.2       1 <0>        -0.2577
      5 C5          0.9136    9.1874    2.6188 C.2       1 <0>         0.1274
      6 N1          1.8913   10.1023    2.7661 N.pl3     1 <0>        -0.3947
      7 C6          1.7020   11.4054    3.2461 C.ar      1 <0>         0.1364
      8 C7          1.9262   12.4932    2.4124 C.ar      1 <0>        -0.1164
      9 C8          1.7393   13.7766    2.8869 C.ar      1 <0>        -0.0748
     10 C9          1.3286   13.9805    4.1913 C.ar      1 <0>        -0.1414
     11 C10         1.1039   12.8986    5.0260 C.ar      1 <0>         0.1165
     12 C11         1.2848   11.6107    4.5537 C.ar      1 <0>        -0.1453
     13 F1          0.7031   13.1005    6.3003 F         1 <0>        -0.1292
     14 C12        -0.5449    9.3926    2.9377 C.3       1 <0>        -0.0999
     15 C13         0.7934    6.7717    1.8167 C.2       1 <0>         0.4495
     16 O1         -0.4032    6.6755    1.9938 O.2       1 <0>        -0.4572
     17 C14         1.5720    5.5994    1.2776 C.3       1 <0>        -0.1646
     18 S1          0.4495    4.2075    0.9968 S.3       1 <0>         0.0678
     19 C15         1.5910    3.0122    0.3861 C.2       1 <0>         0.1451
     20 N2          2.8819    3.1809    0.2166 N.2       1 <0>        -0.2872
     21 N3          3.4060    2.1025   -0.2461 N.2       1 <0>        -0.2718
     22 C16         2.4902    1.1875   -0.3934 C.2       1 <0>         0.1927
     23 N4          1.3003    1.7356   -0.0010 N.pl3     1 <0>        -0.4269
     24 C17        -0.0127    1.0858    0.0080 C.3       1 <0>         0.0441
     25 C18        -1.1160    1.7340    0.8468 C.3       1 <0>        -0.1726
     26 C19        -1.1672    1.8162   -0.6809 C.3       1 <0>        -0.1661
     27 C20         2.7024   -0.2144   -0.9040 C.3       1 <0>         0.0567
     28 C21         2.5419   -0.2330   -2.4023 C.2       1 <0>        -0.1525
     29 C22         3.4792   -0.0468   -3.3636 C.2       1 <0>        -0.1347
     30 C23         3.0995   -0.1093   -4.6912 C.2       1 <0>        -0.1574
     31 C24         1.8009   -0.3548   -4.9926 C.2       1 <0>        -0.1658
     32 S2          1.0693   -0.5136   -3.3719 S.3       1 <0>         0.0351
     33 H1          4.5600   10.8187    1.4421 H         1 <0>         0.0750
     34 H2          4.4052   11.0491    3.2003 H         1 <0>         0.0653
     35 H3          5.2195    9.6013    2.5607 H         1 <0>         0.0858
     36 H4          3.6727    7.6363    1.6072 H         1 <0>         0.1556
     37 H5          2.2463   12.3354    1.3930 H         1 <0>         0.1389
     38 H6          1.9138   14.6222    2.2381 H         1 <0>         0.1465
     39 H7          1.1825   14.9851    4.5597 H         1 <0>         0.1459
     40 H8          1.1054   10.7664    5.2029 H         1 <0>         0.1435
     41 H9         -0.7325    9.1155    3.9751 H         1 <0>         0.0827
     42 H10        -0.8055   10.4404    2.7887 H         1 <0>         0.0680
     43 H11        -1.1517    8.7702    2.2800 H         1 <0>         0.1026
     44 H12         2.2741    5.3335    1.9381 H         1 <0>         0.1140
     45 H13         2.0457    5.8796    0.3367 H         1 <0>         0.1282
     46 H14         0.0009   -0.0025   -0.0510 H         1 <0>         0.1501
     47 H15        -1.8281    1.0722    1.3396 H         1 <0>         0.1227
     48 H16        -0.8650    2.6442    1.3915 H         1 <0>         0.1181
     49 H17        -0.9499    2.7804   -1.1405 H         1 <0>         0.1093
     50 H18        -1.9128    1.2085   -1.1935 H         1 <0>         0.1186
     51 H19         3.7063   -0.5485   -0.6420 H         1 <0>         0.1255
     52 H20         1.9680   -0.8809   -0.4517 H         1 <0>         0.0995
     53 H21         4.5073    0.1477   -3.0962 H         1 <0>         0.1378
     54 H22         3.8266    0.0351   -5.4766 H         1 <0>         0.1363
     55 H23         1.3315   -0.4370   -5.9618 H         1 <0>         0.1869
@<TRIPOS>BOND
     1    1    2 1
     2    1   33 1
     3    1   34 1
     4    1   35 1
     5    2    6 1
     6    2    3 2
     7    3    4 1
     8    3   36 1
     9    4    5 2
    10    4   15 1
    11    5    6 1
    12    5   14 1
    13    6    7 1
    14    7   12 ar
    15    7    8 ar
    16    8    9 ar
    17    8   37 1
    18    9   10 ar
    19    9   38 1
    20   10   11 ar
    21   10   39 1
    22   11   12 ar
    23   11   13 1
    24   12   40 1
    25   14   41 1
    26   14   42 1
    27   14   43 1
    28   15   16 2
    29   15   17 1
    30   17   18 1
    31   17   44 1
    32   17   45 1
    33   18   19 1
    34   19   23 1
    35   19   20 2
    36   20   21 1
    37   21   22 2
    38   22   23 1
    39   22   27 1
    40   23   24 1
    41   24   26 1
    42   24   25 1
    43   24   46 1
    44   25   26 1
    45   25   47 1
    46   25   48 1
    47   26   49 1
    48   26   50 1
    49   27   28 1
    50   27   51 1
    51   27   52 1
    52   28   32 1
    53   28   29 2
    54   29   30 1
    55   29   53 1
    56   30   31 2
    57   30   54 1
    58   31   32 1
    59   31   55 1
@<TRIPOS>MOLECULE
ZINC35093470
   68    71     0     0     0
SMALL
USER_CHARGES

@<TRIPOS>ATOM
      1 C1         -0.1499    1.7155    1.0732 C.3       1 <0>        -0.1432
      2 C2         -0.0483    0.1939    0.9492 C.3       1 <0>        -0.1379
      3 C3          0.9642   -0.1625   -0.1411 C.3       1 <0>         0.1015
      4 N1          1.1396   -1.6162   -0.1884 N.am      1 <0>        -0.5939
      5 C4          0.3859   -2.4138   -1.1589 C.3       1 <0>         0.1830
      6 H1          0.5773   -3.4728   -0.9857 H         1 <0>         0.1325
      7 C5          0.8253   -2.0412   -2.5763 C.3       1 <0>        -0.1237
      8 C6          2.2834   -2.4557   -2.7837 C.3       1 <0>        -0.1483
      9 C7         -1.0870   -2.1371   -1.0005 C.2       1 <0>         0.3903
     10 N2         -1.5248   -0.9483   -1.2851 N.2       1 <0>        -0.4974
     11 C8         -2.8372   -0.6265   -1.1666 C.ar      1 <0>         0.1509
     12 C9         -3.3084    0.6518   -1.4730 C.ar      1 <0>        -0.1056
     13 C10        -4.6490    0.9348   -1.3386 C.ar      1 <0>        -0.0721
     14 C11        -5.5408   -0.0359   -0.9011 C.ar      1 <0>        -0.1349
     15 C12        -5.1002   -1.3041   -0.5922 C.ar      1 <0>        -0.0408
     16 C13        -3.7472   -1.6115   -0.7223 C.ar      1 <0>        -0.1937
     17 C14        -3.2200   -2.9474   -0.4084 C.2       1 <0>         0.5474
     18 O1         -3.9508   -3.8405   -0.0210 O.2       1 <0>        -0.4936
     19 N3         -1.8914   -3.1473   -0.5719 N.am      1 <0>        -0.4915
     20 C15        -1.3388   -4.4034   -0.2918 C.ar      1 <0>         0.0941
     21 C16        -1.2380   -4.8419    1.0219 C.ar      1 <0>        -0.0801
     22 C17        -0.6930   -6.0812    1.2948 C.ar      1 <0>        -0.0979
     23 C18        -0.2479   -6.8852    0.2614 C.ar      1 <0>        -0.0586
     24 C19        -0.3470   -6.4514   -1.0479 C.ar      1 <0>        -0.1030
     25 C20        -0.8958   -5.2153   -1.3277 C.ar      1 <0>        -0.1052
     26 C21         0.3467   -8.2368    0.5628 C.3       1 <0>        -0.0880
     27 C22        -0.7612   -9.2920    0.5662 C.3       1 <0>        -0.1482
     28 C23         1.9945   -2.2197    0.6610 C.2       1 <0>         0.5675
     29 O2          2.0685   -3.4327    0.6889 O.2       1 <0>        -0.5165
     30 C24         2.8421   -1.4065    1.5588 C.ar      1 <0>        -0.1243
     31 C25         3.6713   -0.4147    1.0319 C.ar      1 <0>        -0.0858
     32 C26         4.4593    0.3408    1.8751 C.ar      1 <0>        -0.1278
     33 C27         4.4294    0.1170    3.2404 C.ar      1 <0>        -0.0944
     34 C28         3.6100   -0.8643    3.7689 C.ar      1 <0>        -0.1236
     35 C29         2.8125   -1.6232    2.9371 C.ar      1 <0>        -0.0367
     36 C30         1.9162   -2.6879    3.5151 C.3       1 <0>        -0.1172
     37 H2          0.8257    2.1246    1.3356 H         1 <0>         0.0543
     38 H3         -0.4766    2.1365    0.1223 H         1 <0>         0.0580
     39 H4         -0.8713    1.9693    1.8499 H         1 <0>         0.0537
     40 H5          0.2784   -0.2271    1.9000 H         1 <0>         0.0551
     41 H6         -1.0239   -0.2152    0.6867 H         1 <0>         0.0646
     42 H7          0.5992    0.1910   -1.1055 H         1 <0>         0.0994
     43 H8          1.9200    0.3118    0.0816 H         1 <0>         0.0846
     44 H9          0.1943   -2.5574   -3.2998 H         1 <0>         0.0755
     45 H10         0.7305   -0.9642   -2.7147 H         1 <0>         0.0861
     46 H11         2.9143   -1.9394   -2.0602 H         1 <0>         0.0550
     47 H12         2.3782   -3.5327   -2.6452 H         1 <0>         0.0580
     48 H13         2.5964   -2.1902   -3.7935 H         1 <0>         0.0634
     49 H14        -2.6244    1.4151   -1.8134 H         1 <0>         0.1407
     50 H15        -5.0117    1.9239   -1.5760 H         1 <0>         0.1359
     51 H16        -6.5888    0.2057   -0.8018 H         1 <0>         0.1349
     52 H17        -5.7983   -2.0547   -0.2521 H         1 <0>         0.1379
     53 H18        -1.5850   -4.2143    1.8294 H         1 <0>         0.1204
     54 H19        -0.6140   -6.4227    2.3163 H         1 <0>         0.1302
     55 H20         0.0018   -7.0814   -1.8527 H         1 <0>         0.1324
     56 H21        -0.9770   -4.8789   -2.3507 H         1 <0>         0.1266
     57 H22         1.0846   -8.4872   -0.1993 H         1 <0>         0.0758
     58 H23         0.8280   -8.2121    1.5404 H         1 <0>         0.0756
     59 H24        -1.4992   -9.0416    1.3283 H         1 <0>         0.0565
     60 H25        -1.2425   -9.3167   -0.4115 H         1 <0>         0.0565
     61 H26        -0.3311  -10.2696    0.7841 H         1 <0>         0.0606
     62 H27         3.6960   -0.2395   -0.0335 H         1 <0>         0.1286
     63 H28         5.1012    1.1084    1.4688 H         1 <0>         0.1289
     64 H29         5.0489    0.7108    3.8962 H         1 <0>         0.1272
     65 H30         3.5917   -1.0342    4.8353 H         1 <0>         0.1285
     66 H31         2.4791   -3.6143    3.6290 H         1 <0>         0.0804
     67 H32         1.5485   -2.3640    4.4888 H         1 <0>         0.0683
     68 H33         1.0725   -2.8553    2.8455 H         1 <0>         0.0635
@<TRIPOS>BOND
     1    1    2 1
     2    1   37 1
     3    1   38 1
     4    1   39 1
     5    2    3 1
     6    2   40 1
     7    2   41 1
     8    3    4 1
     9    3   42 1
    10    3   43 1
    11    4    5 1
    12    4   28 am
    13    5    6 1
    14    5    7 1
    15    5    9 1
    16    7    8 1
    17    7   44 1
    18    7   45 1
    19    8   46 1
    20    8   47 1
    21    8   48 1
    22    9   19 1
    23    9   10 2
    24   10   11 1
    25   11   16 ar
    26   11   12 ar
    27   12   13 ar
    28   12   49 1
    29   13   14 ar
    30   13   50 1
    31   14   15 ar
    32   14   51 1
    33   15   16 ar
    34   15   52 1
    35   16   17 1
    36   17   18 2
    37   17   19 am
    38   19   20 1
    39   20   25 ar
    40   20   21 ar
    41   21   22 ar
    42   21   53 1
    43   22   23 ar
    44   22   54 1
    45   23   24 ar
    46   23   26 1
    47   24   25 ar
    48   24   55 1
    49   25   56 1
    50   26   27 1
    51   26   57 1
    52   26   58 1
    53   27   59 1
    54   27   60 1
    55   27   61 1
    56   28   29 2
    57   28   30 1
    58   30   35 ar
    59   30   31 ar
    60   31   32 ar
    61   31   62 1
    62   32   33 ar
    63   32   63 1
    64   33   34 ar
    65   33   64 1
    66   34   35 ar
    67   34   65 1
    68   35   36 1
    69   36   66 1
    70   36   67 1
    71   36   68 1
@<TRIPOS>MOLECULE
ZINC36106878
   57    59     0     0     0
SMALL
USER_CHARGES

@<TRIPOS>ATOM
      1 C1          0.8160    1.3645    0.2171 C.3       1 <0>        -0.1132
      2 C2          0.7368   -0.1405    0.2188 C.ar      1 <0>        -0.1221
      3 C3          0.7180   -0.8320   -0.9786 C.ar      1 <0>        -0.0753
      4 C4          0.6451   -2.2113   -0.9798 C.ar      1 <0>        -0.2102
      5 C5          0.5911   -2.9030    0.2218 C.ar      1 <0>         0.1284
      6 C6          0.6106   -2.2071    1.4215 C.ar      1 <0>        -0.1460
      7 C7          0.6889   -0.8276    1.4174 C.ar      1 <0>        -0.0457
      8 C8          0.7157   -0.0711    2.7205 C.3       1 <0>        -0.1188
      9 O1          0.5188   -4.2601    0.2233 O.3       1 <0>        -0.3084
     10 C9          0.5024   -4.9103   -1.0491 C.3       1 <0>         0.1563
     11 C10         0.4201   -6.4018   -0.8500 C.2       1 <0>         0.0319
     12 N1         -0.6489   -7.1533   -0.7625 N.2       1 <0>        -0.4815
     13 C11        -0.5588   -8.4565   -0.5865 C.2       1 <0>         0.0341
     14 C12         0.6906   -8.9808   -0.5007 C.2       1 <0>        -0.1889
     15 S1          1.6800   -7.5069   -0.6937 S.3       1 <0>         0.1415
     16 C13        -1.7864   -9.3246   -0.4847 C.3       1 <0>         0.1789
     17 N2         -2.2707   -9.3254    0.8979 N.am      1 <0>        -0.5943
     18 C14        -3.2445   -8.3213    1.3335 C.3       1 <0>         0.0945
     19 C15        -4.6484   -8.7527    0.9048 C.3       1 <0>        -0.1233
     20 C16        -5.6821   -7.8043    1.5155 C.3       1 <0>        -0.1515
     21 C17        -4.7525   -8.7065   -0.6209 C.3       1 <0>        -0.1552
     22 C18        -1.8205  -10.2499    1.7691 C.2       1 <0>         0.5618
     23 O2         -1.0064  -11.0781    1.4098 O.2       1 <0>        -0.5279
     24 C19        -2.3164  -10.2568    3.1612 C.ar      1 <0>        -0.1298
     25 C20        -3.6338   -9.8863    3.4377 C.ar      1 <0>        -0.1017
     26 C21        -4.0911   -9.8951    4.7386 C.ar      1 <0>        -0.1186
     27 C22        -3.2461  -10.2701    5.7701 C.ar      1 <0>        -0.0121
     28 C23        -1.9381  -10.6387    5.5020 C.ar      1 <0>        -0.1172
     29 C24        -1.4711  -10.6393    4.2045 C.ar      1 <0>        -0.0500
     30 Cl1        -3.8285  -10.2777    7.4054 Cl        1 <0>        -0.0601
     31 H1          1.8612    1.6733    0.2268 H         1 <0>         0.0689
     32 H2          0.3307    1.7528   -0.6783 H         1 <0>         0.0653
     33 H3          0.3132    1.7557    1.1016 H         1 <0>         0.0682
     34 H4          0.7601   -0.2931   -1.9136 H         1 <0>         0.1263
     35 H5          0.6297   -2.7509   -1.9152 H         1 <0>         0.1277
     36 H6          0.5686   -2.7432    2.3581 H         1 <0>         0.1302
     37 H7         -0.3040    0.1652    3.0245 H         1 <0>         0.0746
     38 H8          1.1905   -0.6840    3.4867 H         1 <0>         0.0690
     39 H9          1.2801    0.8526    2.5928 H         1 <0>         0.0726
     40 H10        -0.3628   -4.5716   -1.6191 H         1 <0>         0.0959
     41 H11         1.4145   -4.6662   -1.5937 H         1 <0>         0.0899
     42 H12         1.0002  -10.0057   -0.3588 H         1 <0>         0.2024
     43 H13        -2.5634   -8.9336   -1.1417 H         1 <0>         0.1103
     44 H14        -1.5370  -10.3429   -0.7829 H         1 <0>         0.1039
     45 H15        -3.2087   -8.2274    2.4189 H         1 <0>         0.0937
     46 H16        -3.0045   -7.3607    0.8776 H         1 <0>         0.0895
     47 H17        -4.8380   -9.7686    1.2514 H         1 <0>         0.0811
     48 H18        -5.4925   -6.7884    1.1690 H         1 <0>         0.0622
     49 H19        -6.6823   -8.1116    1.2101 H         1 <0>         0.0638
     50 H20        -5.6079   -7.8372    2.6025 H         1 <0>         0.0584
     51 H21        -4.0161   -9.3821   -1.0560 H         1 <0>         0.0632
     52 H22        -5.7527   -9.0138   -0.9263 H         1 <0>         0.0592
     53 H23        -4.5630   -7.6905   -0.9674 H         1 <0>         0.0614
     54 H24        -4.2934   -9.5931    2.6343 H         1 <0>         0.1630
     55 H25        -5.1099   -9.6088    4.9537 H         1 <0>         0.1408
     56 H26        -1.2837  -10.9298    6.3104 H         1 <0>         0.1418
     57 H27        -0.4523  -10.9309    3.9962 H         1 <0>         0.1417
@<TRIPOS>BOND
     1    1    2 1
     2    1   31 1
     3    1   32 1
     4    1   33 1
     5    2    7 ar
     6    2    3 ar
     7    3    4 ar
     8    3   34 1
     9    4    5 ar
    10    4   35 1
    11    5    6 ar
    12    5    9 1
    13    6    7 ar
    14    6   36 1
    15    7    8 1
    16    8   37 1
    17    8   38 1
    18    8   39 1
    19    9   10 1
    20   10   11 1
    21   10   40 1
    22   10   41 1
    23   11   15 1
    24   11   12 2
    25   12   13 1
    26   13   14 2
    27   13   16 1
    28   14   15 1
    29   14   42 1
    30   16   17 1
    31   16   43 1
    32   16   44 1
    33   17   18 1
    34   17   22 am
    35   18   19 1
    36   18   45 1
    37   18   46 1
    38   19   20 1
    39   19   21 1
    40   19   47 1
    41   20   48 1
    42   20   49 1
    43   20   50 1
    44   21   51 1
    45   21   52 1
    46   21   53 1
    47   22   23 2
    48   22   24 1
    49   24   29 ar
    50   24   25 ar
    51   25   26 ar
    52   25   54 1
    53   26   27 ar
    54   26   55 1
    55   27   28 ar
    56   27   30 1
    57   28   29 ar
    58   28   56 1
    59   29   57 1
@<TRIPOS>MOLECULE
ZINC45668996
   50    54     0     0     0
SMALL
USER_CHARGES

@<TRIPOS>ATOM
      1 C1         -0.0167    1.3785    0.0096 C.ar      1 <0>        -0.0968
      2 C2          1.1697    2.0888    0.0021 C.ar      1 <0>        -0.1016
      3 C3          2.3774    1.4186   -0.0130 C.ar      1 <0>        -0.0916
      4 C4          2.3993    0.0307   -0.0206 C.ar      1 <0>         0.0952
      5 C5          1.2067   -0.6797   -0.0130 C.ar      1 <0>        -0.1010
      6 C6          0.0021   -0.0041    0.0020 C.ar      1 <0>        -0.1038
      7 N1          3.6240   -0.6526   -0.0364 N.pl3     1 <0>        -0.4074
      8 C7          4.1147   -1.4489   -1.0370 C.2       1 <0>         0.1935
      9 N2          5.2790   -1.8862   -0.6482 N.2       1 <0>        -0.2472
     10 N3          5.5575   -1.4262    0.5190 N.2       1 <0>        -0.2829
     11 C8          4.5803   -0.6579    0.9418 C.2       1 <0>         0.1774
     12 S1          4.5118    0.2002    2.4792 S.3       1 <0>         0.0144
     13 C9          6.0761   -0.2290    3.2914 C.3       1 <0>        -0.1001
     14 C10         6.1479    0.4594    4.6558 C.3       1 <0>        -0.0662
     15 C11         7.4474    0.1029    5.3306 C.ar      1 <0>        -0.0367
     16 C12         7.5399   -1.0132    6.1480 C.ar      1 <0>        -0.1664
     17 C13         8.7482   -1.3088    6.7500 C.ar      1 <0>         0.1021
     18 N4          9.8042   -0.5435    6.5547 N.ar      1 <0>        -0.4853
     19 C14         9.7530    0.5254    5.7841 C.ar      1 <0>         0.1021
     20 C15         8.5805    0.8799    5.1441 C.ar      1 <0>        -0.1663
     21 C16         3.4340   -1.7620   -2.3445 C.3       1 <0>        -0.0273
     22 S2          3.9099   -0.5268   -3.5849 S.3       1 <0>         0.0708
     23 C17         3.0441   -1.0248   -5.0364 C.2       1 <0>         0.1138
     24 N5          2.2322   -2.0451   -5.2029 N.2       1 <0>        -0.5037
     25 C18         1.6319   -2.3086   -6.3841 C.ar      1 <0>         0.0824
     26 C19         0.7445   -3.3645   -6.6955 C.ar      1 <0>        -0.0609
     27 C20         0.2200   -3.4899   -7.9555 C.ar      1 <0>        -0.1087
     28 C21         0.5374   -2.5932   -8.9652 C.ar      1 <0>        -0.0917
     29 C22         1.4025   -1.5481   -8.6956 C.ar      1 <0>        -0.0657
     30 C23         1.9321   -1.4146   -7.4368 C.ar      1 <0>        -0.1455
     31 S3          3.0401   -0.2667   -6.6549 S.3       1 <0>         0.0540
     32 H1         -0.9597    1.9046    0.0260 H         1 <0>         0.1352
     33 H2          1.1520    3.1687    0.0077 H         1 <0>         0.1388
     34 H3          3.3036    1.9739   -0.0192 H         1 <0>         0.1337
     35 H4          1.2208   -1.7596   -0.0193 H         1 <0>         0.1305
     36 H5         -0.9261   -0.5562    0.0082 H         1 <0>         0.1371
     37 H6          6.1311   -1.3092    3.4261 H         1 <0>         0.1010
     38 H7          6.9097    0.1029    2.6726 H         1 <0>         0.1014
     39 H8          6.0929    1.5397    4.5211 H         1 <0>         0.0911
     40 H9          5.3142    0.1275    5.2746 H         1 <0>         0.0909
     41 H10         6.6784   -1.6434    6.3124 H         1 <0>         0.1365
     42 H11         8.8285   -2.1764    7.3882 H         1 <0>         0.1575
     43 H12        10.6387    1.1283    5.6481 H         1 <0>         0.1576
     44 H13         8.5461    1.7537    4.5102 H         1 <0>         0.1368
     45 H14         3.7367   -2.7527   -2.6836 H         1 <0>         0.1366
     46 H15         2.3531   -1.7399   -2.2059 H         1 <0>         0.1185
     47 H16         0.4774   -4.0803   -5.9321 H         1 <0>         0.1336
     48 H17        -0.4556   -4.3055   -8.1672 H         1 <0>         0.1368
     49 H18         0.1138   -2.7101   -9.9518 H         1 <0>         0.1415
     50 H19         1.6598   -0.8418   -9.4710 H         1 <0>         0.1361
@<TRIPOS>BOND
     1    1    6 ar
     2    1    2 ar
     3    1   32 1
     4    2    3 ar
     5    2   33 1
     6    3    4 ar
     7    3   34 1
     8    4    5 ar
     9    4    7 1
    10    5    6 ar
    11    5   35 1
    12    6   36 1
    13    7   11 1
    14    7    8 1
    15    8    9 2
    16    8   21 1
    17    9   10 1
    18   10   11 2
    19   11   12 1
    20   12   13 1
    21   13   14 1
    22   13   37 1
    23   13   38 1
    24   14   15 1
    25   14   39 1
    26   14   40 1
    27   15   20 ar
    28   15   16 ar
    29   16   17 ar
    30   16   41 1
    31   17   18 ar
    32   17   42 1
    33   18   19 ar
    34   19   20 ar
    35   19   43 1
    36   20   44 1
    37   21   22 1
    38   21   45 1
    39   21   46 1
    40   22   23 1
    41   23   31 1
    42   23   24 2
    43   24   25 1
    44   25   30 ar
    45   25   26 ar
    46   26   27 ar
    47   26   47 1
    48   27   28 ar
    49   27   48 1
    50   28   29 ar
    51   28   49 1
    52   29   30 ar
    53   29   50 1
    54   30   31 1
@<TRIPOS>MOLECULE
ZINC04924057
   51    52     0     0     0
SMALL
USER_CHARGES
N-[(2,4-dipropoxyphenyl)methyleneamino]-4,6-dimethyl-pyrimidin-2-amine
@<TRIPOS>ATOM
      1 C1          6.0506    1.8386   -0.0458 C.3       1 <0>        -0.1508
      2 C2          4.7766    0.9914   -0.0382 C.3       1 <0>        -0.1246
      3 C3          3.5533    1.9101   -0.0216 C.3       1 <0>         0.0570
      4 O1          2.3634    1.1188   -0.0145 O.3       1 <0>        -0.3131
      5 C4          1.1796    1.7852    0.0004 C.ar      1 <0>         0.1873
      6 C5          1.1677    3.1748    0.0075 C.ar      1 <0>        -0.2518
      7 C6         -0.0289    3.8581    0.0221 C.ar      1 <0>        -0.0112
      8 C7         -1.2348    3.1528    0.0299 C.ar      1 <0>        -0.1237
      9 C8         -1.2205    1.7509    0.0173 C.ar      1 <0>         0.2056
     10 C9         -0.0126    1.0758    0.0080 C.ar      1 <0>        -0.2550
     11 O2         -2.3885    1.0576    0.0195 O.3       1 <0>        -0.2643
     12 C10        -2.2965   -0.3684    0.0118 C.3       1 <0>         0.0538
     13 C11        -3.7031   -0.9703    0.0157 C.3       1 <0>        -0.1162
     14 C12        -3.6046   -2.4971    0.0074 C.3       1 <0>        -0.1514
     15 C13        -2.5166    3.8793    0.0454 C.2       1 <0>         0.0974
     16 N1         -3.6357    3.2213    0.0526 N.2       1 <0>        -0.1824
     17 N2         -4.8544    3.9122    0.0674 N.pl3     1 <0>        -0.5503
     18 C14        -6.0474    3.2107    0.0750 C.ar      1 <0>         0.5897
     19 N3         -6.0190    1.8856    0.0627 N.ar      1 <0>        -0.5256
     20 C15        -7.1408    1.1853    0.0742 C.ar      1 <0>         0.2121
     21 C16        -8.3553    1.8537    0.0889 C.ar      1 <0>        -0.2834
     22 C17        -8.3489    3.2400    0.0962 C.ar      1 <0>         0.2158
     23 N4         -7.1915    3.8799    0.0891 N.ar      1 <0>        -0.5742
     24 C18        -9.6451    4.0085    0.1126 C.3       1 <0>        -0.1062
     25 C19        -7.0995   -0.3212    0.0658 C.3       1 <0>        -0.1106
     26 H1          6.9221    1.1841   -0.0577 H         1 <0>         0.0657
     27 H2          6.0602    2.4724   -0.9326 H         1 <0>         0.0583
     28 H3          6.0771    2.4629    0.8473 H         1 <0>         0.0583
     29 H4          4.7671    0.3576    0.8485 H         1 <0>         0.0741
     30 H5          4.7501    0.3671   -0.9314 H         1 <0>         0.0741
     31 H6          3.5628    2.5439   -0.9083 H         1 <0>         0.0655
     32 H7          3.5798    2.5344    0.8715 H         1 <0>         0.0655
     33 H8          2.0994    3.7211    0.0019 H         1 <0>         0.1335
     34 H9         -0.0345    4.9381    0.0280 H         1 <0>         0.1378
     35 H10         0.0021   -0.0041    0.0020 H         1 <0>         0.1388
     36 H11        -1.7647   -0.6934   -0.8825 H         1 <0>         0.0599
     37 H12        -1.7559   -0.7024    0.8975 H         1 <0>         0.0599
     38 H13        -4.2349   -0.6453    0.9099 H         1 <0>         0.0763
     39 H14        -4.2436   -0.6363   -0.8700 H         1 <0>         0.0762
     40 H15        -4.6067   -2.9258    0.0101 H         1 <0>         0.0636
     41 H16        -3.0728   -2.8220   -0.8869 H         1 <0>         0.0556
     42 H17        -3.0641   -2.8311    0.8930 H         1 <0>         0.0556
     43 H18        -2.5251    4.9593    0.0509 H         1 <0>         0.1171
     44 H19        -4.8621    4.8821    0.0723 H         1 <0>         0.3975
     45 H20        -9.2863    1.3063    0.0941 H         1 <0>         0.1436
     46 H21        -9.9671    4.1996   -0.9110 H         1 <0>         0.0856
     47 H22       -10.4067    3.4253    0.6303 H         1 <0>         0.0824
     48 H23        -9.4989    4.9564    0.6305 H         1 <0>         0.0811
     49 H24        -7.0989   -0.6788   -0.9639 H         1 <0>         0.0849
     50 H25        -6.1953   -0.6627    0.5696 H         1 <0>         0.0855
     51 H26        -7.9745   -0.7115    0.5855 H         1 <0>         0.0801
@<TRIPOS>BOND
     1    1    2 1
     2    1   26 1
     3    1   27 1
     4    1   28 1
     5    2    3 1
     6    2   29 1
     7    2   30 1
     8    3    4 1
     9    3   31 1
    10    3   32 1
    11    4    5 1
    12    5   10 ar
    13    5    6 ar
    14    6    7 ar
    15    6   33 1
    16    7    8 ar
    17    7   34 1
    18    8    9 ar
    19    8   15 1
    20    9   10 ar
    21    9   11 1
    22   10   35 1
    23   11   12 1
    24   12   13 1
    25   12   36 1
    26   12   37 1
    27   13   14 1
    28   13   38 1
    29   13   39 1
    30   14   40 1
    31   14   41 1
    32   14   42 1
    33   15   16 2
    34   15   43 1
    35   16   17 1
    36   17   18 1
    37   17   44 1
    38   18   23 ar
    39   18   19 ar
    40   19   20 ar
    41   20   21 ar
    42   20   25 1
    43   21   22 ar
    44   21   45 1
    45   22   23 ar
    46   22   24 1
    47   24   46 1
    48   24   47 1
    49   24   48 1
    50   25   49 1
    51   25   50 1
    52   25   51 1
@<TRIPOS>MOLECULE
ZINC08643441
   58    59     0     0     0
SMALL
USER_CHARGES
N-butyl-2-[4-methyl-2,5-dioxo-4-(p-tolyl)imidazolidin-1-yl]-N-sec-butyl-acetamide
@<TRIPOS>ATOM
      1 C1          1.8717    3.5979    7.2113 C.3       1 <0>        -0.1538
      2 C2          0.8297    3.8115    6.1115 C.3       1 <0>        -0.1226
      3 C3          0.5678    2.4865    5.3928 C.3       1 <0>        -0.1420
      4 C4         -0.4742    2.7001    4.2930 C.3       1 <0>         0.1022
      5 N1         -0.7249    1.4313    3.6048 N.am      1 <0>        -0.6034
      6 C5          0.0758    1.0620    2.4348 C.3       1 <0>         0.1511
      7 H1          0.8465    1.8148    2.2696 H         1 <0>         0.0874
      8 C6          0.7343   -0.2978    2.6761 C.3       1 <0>        -0.1694
      9 C7         -0.8286    0.9793    1.2034 C.3       1 <0>        -0.1430
     10 C8         -1.4032    2.3642    0.8988 C.3       1 <0>        -0.1475
     11 C9         -1.6920    0.6039    4.0479 C.2       1 <0>         0.5062
     12 O1         -1.9606   -0.4026    3.4268 O.2       1 <0>        -0.5154
     13 C10        -2.4398    0.9294    5.3152 C.3       1 <0>         0.0967
     14 N2         -3.3462   -0.1735    5.6443 N.am      1 <0>        -0.5595
     15 C11        -3.0086   -1.2269    6.4141 C.2       1 <0>         0.5421
     16 O2         -1.9379   -1.4335    6.9438 O.2       1 <0>        -0.4569
     17 C12        -4.2460   -2.1001    6.4792 C.3       1 <0>         0.1709
     18 N3         -5.2293   -1.3687    5.6618 N.am      1 <0>        -0.7153
     19 C13        -4.6132   -0.2564    5.2225 C.2       1 <0>         0.7122
     20 O3         -5.1468    0.5782    4.5184 O.2       1 <0>        -0.5355
     21 C14        -4.7368   -2.2315    7.9224 C.3       1 <0>        -0.1443
     22 C15        -3.9687   -3.4576    5.8864 C.ar      1 <0>        -0.1024
     23 C16        -2.6948   -3.9910    5.9466 C.ar      1 <0>        -0.0999
     24 C17        -2.4416   -5.2383    5.4071 C.ar      1 <0>        -0.1153
     25 C18        -3.4599   -5.9478    4.7985 C.ar      1 <0>        -0.0739
     26 C19        -4.7325   -5.4119    4.7332 C.ar      1 <0>        -0.1196
     27 C20        -4.9869   -4.1669    5.2774 C.ar      1 <0>        -0.0908
     28 C21        -3.1827   -7.3053    4.2057 C.3       1 <0>        -0.1185
     29 H2          2.0582    4.5419    7.7234 H         1 <0>         0.0560
     30 H3          1.5000    2.8639    7.9264 H         1 <0>         0.0545
     31 H4          2.7991    3.2357    6.7677 H         1 <0>         0.0542
     32 H5         -0.0978    4.1737    6.5551 H         1 <0>         0.0643
     33 H6          1.2013    4.5455    5.3965 H         1 <0>         0.0649
     34 H7          1.4953    2.1243    4.9492 H         1 <0>         0.0702
     35 H8          0.1962    1.7525    6.1078 H         1 <0>         0.0655
     36 H9         -1.4016    3.0622    4.7366 H         1 <0>         0.0792
     37 H10        -0.1025    3.4340    3.5780 H         1 <0>         0.0868
     38 H11        -0.0347   -1.0677    2.7400 H         1 <0>         0.0767
     39 H12         1.4093   -0.5261    1.8513 H         1 <0>         0.0644
     40 H13         1.2974   -0.2684    3.6089 H         1 <0>         0.0547
     41 H14        -0.2482    0.6308    0.3491 H         1 <0>         0.0700
     42 H15        -1.6438    0.2823    1.3975 H         1 <0>         0.0835
     43 H16        -2.0475    2.3054    0.0216 H         1 <0>         0.0539
     44 H17        -1.9836    2.7127    1.7531 H         1 <0>         0.0516
     45 H18        -0.5880    3.0612    0.7047 H         1 <0>         0.0510
     46 H19        -1.7296    1.0714    6.1298 H         1 <0>         0.1243
     47 H20        -3.0163    1.8433    5.1724 H         1 <0>         0.1270
     48 H21        -6.1437   -1.6355    5.4786 H         1 <0>         0.4406
     49 H22        -4.9686   -1.2429    8.3187 H         1 <0>         0.0729
     50 H23        -5.6328   -2.8517    7.9464 H         1 <0>         0.0838
     51 H24        -3.9588   -2.6933    8.5302 H         1 <0>         0.0873
     52 H25        -1.8983   -3.4349    6.4185 H         1 <0>         0.1379
     53 H26        -1.4472   -5.6568    5.4578 H         1 <0>         0.1263
     54 H27        -5.5281   -5.9661    4.2574 H         1 <0>         0.1268
     55 H28        -5.9812   -3.7483    5.2264 H         1 <0>         0.1215
     56 H29        -2.8844   -7.1926    3.1634 H         1 <0>         0.0731
     57 H30        -2.3800   -7.7881    4.7632 H         1 <0>         0.0686
     58 H31        -4.0830   -7.9171    4.2619 H         1 <0>         0.0685
@<TRIPOS>BOND
     1    1    2 1
     2    1   29 1
     3    1   30 1
     4    1   31 1
     5    2    3 1
     6    2   32 1
     7    2   33 1
     8    3    4 1
     9    3   34 1
    10    3   35 1
    11    4    5 1
    12    4   36 1
    13    4   37 1
    14    5    6 1
    15    5   11 am
    16    6    7 1
    17    6    8 1
    18    6    9 1
    19    8   38 1
    20    8   39 1
    21    8   40 1
    22    9   10 1
    23    9   41 1
    24    9   42 1
    25   10   43 1
    26   10   44 1
    27   10   45 1
    28   11   12 2
    29   11   13 1
    30   13   14 1
    31   13   46 1
    32   13   47 1
    33   14   19 am
    34   14   15 am
    35   15   16 2
    36   15   17 1
    37   17   18 1
    38   17   21 1
    39   17   22 1
    40   18   19 am
    41   18   48 1
    42   19   20 2
    43   21   49 1
    44   21   50 1
    45   21   51 1
    46   22   27 ar
    47   22   23 ar
    48   23   24 ar
    49   23   52 1
    50   24   25 ar
    51   24   53 1
    52   25   26 ar
    53   25   28 1
    54   26   27 ar
    55   26   54 1
    56   27   55 1
    57   28   56 1
    58   28   57 1
    59   28   58 1
@<TRIPOS>MOLECULE
ZINC23410907
   55    57     0     0     0
SMALL
USER_CHARGES
(3R)-N-[[4-(dipropylamino)phenyl]methyleneamino]-2,3-dihydro-1,4-benzodioxine-3-carboxamide
@<TRIPOS>ATOM
      1 C1         -0.7527    1.5927   -1.2315 C.3       1 <0>        -0.1536
      2 C2         -0.0127    1.0858    0.0080 C.3       1 <0>        -0.1459
      3 C3         -0.7288    1.5792    1.2668 C.3       1 <0>         0.1174
      4 N1         -0.0203    1.0939    2.4537 N.pl3     1 <0>        -0.6208
      5 C4         -0.3844   -0.1945    3.0484 C.3       1 <0>         0.1181
      6 C5          0.4517   -1.3054    2.4098 C.3       1 <0>        -0.1462
      7 C6          0.0715   -2.6510    3.0308 C.3       1 <0>        -0.1532
      8 C7          1.0009    1.8585    3.0174 C.ar      1 <0>         0.2403
      9 C8          1.3490    3.0789    2.4481 C.ar      1 <0>        -0.2053
     10 C9          2.3537    3.8389    3.0050 C.ar      1 <0>        -0.0243
     11 C10         3.0311    3.3773    4.1370 C.ar      1 <0>        -0.1268
     12 C11         2.6821    2.1481    4.7033 C.ar      1 <0>        -0.0355
     13 C12         1.6725    1.3961    4.1443 C.ar      1 <0>        -0.2052
     14 C13         4.1106    4.1851    4.7325 C.2       1 <0>         0.1303
     15 N2          4.4335    5.3265    4.2054 N.2       1 <0>        -0.2404
     16 N3          5.4596    6.0943    4.7715 N.am      1 <0>        -0.5910
     17 C14         5.7948    7.2794    4.2241 C.2       1 <0>         0.5415
     18 O1          5.2081    7.6813    3.2413 O.2       1 <0>        -0.4746
     19 C15         6.8985    8.1053    4.8330 C.3       1 <0>         0.0411
     20 H1          6.6586    8.3236    5.8841 H         1 <0>         0.1170
     21 C16         8.2387    7.3741    4.6765 C.3       1 <0>         0.0355
     22 O2          9.2643    8.1906    5.2523 O.3       1 <0>        -0.2979
     23 C17         9.2512    9.5113    4.9233 C.ar      1 <0>         0.0432
     24 C18        10.3866   10.2780    5.1399 C.ar      1 <0>        -0.1100
     25 C19        10.3866   11.6217    4.8169 C.ar      1 <0>        -0.1143
     26 C20         9.2554   12.2053    4.2772 C.ar      1 <0>        -0.1112
     27 C21         8.1213   11.4467    4.0577 C.ar      1 <0>        -0.1093
     28 C22         8.1150   10.0973    4.3785 C.ar      1 <0>         0.0525
     29 O3          6.9916    9.3624    4.1540 O.3       1 <0>        -0.2826
     30 H2         -0.2378    1.2380   -2.1365 H         1 <0>         0.0581
     31 H3         -0.7676    2.6926   -1.2254 H         1 <0>         0.0567
     32 H4         -1.7847    1.2120   -1.2237 H         1 <0>         0.0555
     33 H5          0.0022   -0.0141    0.0019 H         1 <0>         0.0661
     34 H6          1.0193    1.4665    0.0002 H         1 <0>         0.0665
     35 H7         -0.7437    2.6791    1.2729 H         1 <0>         0.0787
     36 H8         -1.7608    1.1985    1.2746 H         1 <0>         0.0758
     37 H9         -0.1912   -0.1663    4.1309 H         1 <0>         0.0783
     38 H10        -1.4521   -0.3914    2.8715 H         1 <0>         0.0756
     39 H11         0.2585   -1.3335    1.3273 H         1 <0>         0.0663
     40 H12         1.5194   -1.1085    2.5867 H         1 <0>         0.0664
     41 H13         0.6726   -3.4496    2.5716 H         1 <0>         0.0579
     42 H14        -0.9962   -2.8479    2.8539 H         1 <0>         0.0555
     43 H15         0.2647   -2.6229    4.1133 H         1 <0>         0.0561
     44 H16         0.8281    3.4328    1.5707 H         1 <0>         0.1259
     45 H17         2.6210    4.7881    2.5645 H         1 <0>         0.1324
     46 H18         3.2036    1.7881    5.5778 H         1 <0>         0.1265
     47 H19         1.4022    0.4462    4.5813 H         1 <0>         0.1270
     48 H20         4.6426    3.8207    5.6237 H         1 <0>         0.1210
     49 H21         5.9916    5.7299    5.6627 H         1 <0>         0.4021
     50 H22         8.1908    6.4056    5.1958 H         1 <0>         0.1287
     51 H23         8.4432    7.2078    3.6085 H         1 <0>         0.0893
     52 H24        11.2716    9.8245    5.5612 H         1 <0>         0.1368
     53 H25        11.2718   12.2168    4.9860 H         1 <0>         0.1349
     54 H26         9.2581   13.2558    4.0266 H         1 <0>         0.1353
     55 H27         7.2389   11.9051    3.6362 H         1 <0>         0.1377
@<TRIPOS>BOND
     1    1    2 1
     2    1   30 1
     3    1   31 1
     4    1   32 1
     5    2    3 1
     6    2   33 1
     7    2   34 1
     8    3    4 1
     9    3   35 1
    10    3   36 1
    11    4    5 1
    12    4    8 1
    13    5    6 1
    14    5   37 1
    15    5   38 1
    16    6    7 1
    17    6   39 1
    18    6   40 1
    19    7   41 1
    20    7   42 1
    21    7   43 1
    22    8   13 ar
    23    8    9 ar
    24    9   10 ar
    25    9   44 1
    26   10   11 ar
    27   10   45 1
    28   11   12 ar
    29   11   14 1
    30   12   13 ar
    31   12   46 1
    32   13   47 1
    33   14   15 2
    34   14   48 1
    35   15   16 1
    36   16   17 am
    37   16   49 1
    38   17   18 2
    39   17   19 1
    40   19   20 1
    41   19   29 1
    42   19   21 1
    43   21   22 1
    44   21   50 1
    45   21   51 1
    46   22   23 1
    47   23   28 ar
    48   23   24 ar
    49   24   25 ar
    50   24   52 1
    51   25   26 ar
    52   25   53 1
    53   26   27 ar
    54   26   54 1
    55   27   28 ar
    56   27   55 1
    57   28   29 1
@<TRIPOS>MOLECULE
ZINC41669307
   56    57     0     0     0
SMALL
USER_CHARGES

@<TRIPOS>ATOM
      1 C1         -0.0187    1.5258    0.0104 C.3       1 <0>        -0.1474
      2 C2          0.0021   -0.0041    0.0020 C.3       1 <0>        -0.1371
      3 C3          0.7182   -0.4975   -1.2568 C.3       1 <0>         0.1090
      4 N1          0.7381   -1.9623   -1.2648 N.am      1 <0>        -0.5481
      5 C4          1.7621   -2.6256   -0.6888 C.2       1 <0>         0.5287
      6 O1          2.6729   -2.0156   -0.1607 O.2       1 <0>        -0.4819
      7 C5          1.7622   -4.0978   -0.7077 C.2       1 <0>         0.3220
      8 N2          0.7682   -4.7232   -1.2831 N.2       1 <0>        -0.2765
      9 N3         -0.2712   -3.9895   -1.8670 N.am      1 <0>        -0.4308
     10 C6         -0.2681   -2.6452   -1.8420 C.2       1 <0>         0.6703
     11 O2         -1.1880   -2.0357   -2.3534 O.2       1 <0>        -0.5383
     12 C7         -1.3815   -4.6969   -2.5099 C.3       1 <0>         0.1497
     13 C8         -1.0530   -4.9270   -3.9863 C.3       1 <0>        -0.1405
     14 C9         -2.2125   -5.6657   -4.6577 C.3       1 <0>        -0.1484
     15 N4          2.8061   -4.8140   -0.1217 N.pl3     1 <0>        -0.6788
     16 C10         2.7943   -6.2788   -0.1472 C.3       1 <0>         0.1972
     17 H1          2.3521   -6.6223   -1.0824 H         1 <0>         0.1001
     18 C11         1.9691   -6.8028    1.0299 C.3       1 <0>        -0.1599
     19 C12         4.2063   -6.7944   -0.0399 C.ar      1 <0>        -0.1008
     20 C13         5.1009   -6.1857    0.8204 C.ar      1 <0>        -0.1093
     21 C14         6.3960   -6.6587    0.9188 C.ar      1 <0>        -0.1130
     22 C15         6.7965   -7.7407    0.1573 C.ar      1 <0>        -0.0706
     23 C16         5.9016   -8.3499   -0.7023 C.ar      1 <0>        -0.1104
     24 C17         4.6052   -7.8796   -0.7975 C.ar      1 <0>        -0.1016
     25 C18         8.2087   -8.2557    0.2639 C.3       1 <0>        -0.0596
     26 C19         8.1863   -9.7137    0.7270 C.3       1 <0>        -0.1451
     27 C20         8.8891   -8.1653   -1.1035 C.3       1 <0>        -0.1454
     28 H2          1.0039    1.9031    0.0027 H         1 <0>         0.0591
     29 H3         -0.5459    1.8868   -0.8726 H         1 <0>         0.0601
     30 H4         -0.5289    1.8773    0.9072 H         1 <0>         0.0624
     31 H5          0.5293   -0.3651    0.8851 H         1 <0>         0.0667
     32 H6         -1.0205   -0.3814    0.0098 H         1 <0>         0.0697
     33 H7          0.1910   -0.1364   -2.1398 H         1 <0>         0.1042
     34 H8          1.7408   -0.1202   -1.2645 H         1 <0>         0.1007
     35 H9         -1.5340   -5.6573   -2.0176 H         1 <0>         0.0970
     36 H10        -2.2891   -4.0987   -2.4285 H         1 <0>         0.1001
     37 H11        -0.9004   -3.9665   -4.4786 H         1 <0>         0.0662
     38 H12        -0.1454   -5.5251   -4.0677 H         1 <0>         0.0690
     39 H13        -1.9785   -5.8296   -5.7096 H         1 <0>         0.0605
     40 H14        -2.3650   -6.6262   -4.1654 H         1 <0>         0.0587
     41 H15        -3.1201   -5.0675   -4.5764 H         1 <0>         0.0588
     42 H16         3.5397   -4.3422    0.3028 H         1 <0>         0.4196
     43 H17         0.9479   -6.4298    0.9522 H         1 <0>         0.0656
     44 H18         1.9604   -7.8926    1.0109 H         1 <0>         0.0714
     45 H19         2.4113   -6.4592    1.9650 H         1 <0>         0.0602
     46 H20         4.7880   -5.3404    1.4153 H         1 <0>         0.1205
     47 H21         7.0952   -6.1827    1.5904 H         1 <0>         0.1234
     48 H22         6.2146   -9.1950   -1.2975 H         1 <0>         0.1239
     49 H23         3.9050   -8.3579   -1.4664 H         1 <0>         0.1252
     50 H24         8.7615   -7.6538    0.9853 H         1 <0>         0.0781
     51 H25         7.6335  -10.3156    0.0056 H         1 <0>         0.0571
     52 H26         9.2077  -10.0862    0.8041 H         1 <0>         0.0593
     53 H27         7.7016   -9.7781    1.7012 H         1 <0>         0.0563
     54 H28         8.9051   -7.1265   -1.4334 H         1 <0>         0.0560
     55 H29         9.9106   -8.5378   -1.0264 H         1 <0>         0.0594
     56 H30         8.3364   -8.7671   -1.8248 H         1 <0>         0.0571
@<TRIPOS>BOND
     1    1    2 1
     2    1   28 1
     3    1   29 1
     4    1   30 1
     5    2    3 1
     6    2   31 1
     7    2   32 1
     8    3    4 1
     9    3   33 1
    10    3   34 1
    11    4   10 am
    12    4    5 am
    13    5    6 2
    14    5    7 1
    15    7    8 2
    16    7   15 1
    17    8    9 1
    18    9   10 am
    19    9   12 1
    20   10   11 2
    21   12   13 1
    22   12   35 1
    23   12   36 1
    24   13   14 1
    25   13   37 1
    26   13   38 1
    27   14   39 1
    28   14   40 1
    29   14   41 1
    30   15   16 1
    31   15   42 1
    32   16   17 1
    33   16   18 1
    34   16   19 1
    35   18   43 1
    36   18   44 1
    37   18   45 1
    38   19   24 ar
    39   19   20 ar
    40   20   21 ar
    41   20   46 1
    42   21   22 ar
    43   21   47 1
    44   22   23 ar
    45   22   25 1
    46   23   24 ar
    47   23   48 1
    48   24   49 1
    49   25   26 1
    50   25   27 1
    51   25   50 1
    52   26   51 1
    53   26   52 1
    54   26   53 1
    55   27   54 1
    56   27   55 1
    57   27   56 1
@<TRIPOS>MOLECULE
ZINC63402100
   51    52     0     0     0
SMALL
USER_CHARGES

@<TRIPOS>ATOM
      1 C1         -0.0187    1.5258    0.0104 C.3       1 <0>        -0.1524
      2 C2          0.0021   -0.0041    0.0020 C.3       1 <0>         0.0814
      3 C3          0.7421   -0.5109    1.2415 C.3       1 <0>        -0.1693
      4 O1         -1.3386   -0.4987    0.0122 O.3       1 <0>        -0.3004
      5 C4         -1.5599   -1.6908   -0.5966 C.ar      1 <0>         0.3343
      6 C5         -2.8436   -2.2211   -0.6247 C.ar      1 <0>        -0.1938
      7 C6         -3.0560   -3.4376   -1.2492 C.ar      1 <0>        -0.0189
      8 C7         -1.9713   -4.0838   -1.8264 C.ar      1 <0>        -0.2059
      9 C8         -0.7229   -3.4982   -1.7606 C.ar      1 <0>         0.1640
     10 N1         -0.5525   -2.3344   -1.1623 N.ar      1 <0>        -0.5404
     11 C9         -2.1545   -5.4107   -2.5169 C.3       1 <0>         0.1912
     12 N2         -2.4584   -5.1868   -3.9324 N.am      1 <0>        -0.7432
     13 C10        -2.6632   -6.2369   -4.7521 C.2       1 <0>         0.7094
     14 O2         -2.5957   -7.3701   -4.3167 O.2       1 <0>        -0.5827
     15 N3         -2.9427   -6.0308   -6.0543 N.am      1 <0>        -0.6198
     16 C11        -3.0241   -4.6654   -6.5789 C.3       1 <0>         0.1361
     17 C12        -1.6643   -4.2310   -7.0620 C.2       1 <0>        -0.1842
     18 C13        -1.5120   -3.8013   -8.2901 C.2       1 <0>        -0.1667
     19 C14        -3.1653   -7.1723   -6.9452 C.3       1 <0>         0.1725
     20 C15        -4.6293   -7.5298   -6.9475 C.ar      1 <0>        -0.1104
     21 C16        -5.1189   -8.4405   -6.0278 C.ar      1 <0>        -0.0612
     22 C17        -6.4613   -8.7745   -6.0228 C.ar      1 <0>        -0.1216
     23 C18        -7.3217   -8.2003   -6.9358 C.ar      1 <0>        -0.0655
     24 C19        -6.8346   -7.2804   -7.8662 C.ar      1 <0>        -0.0332
     25 C20        -5.4791   -6.9443   -7.8625 C.ar      1 <0>        -0.0589
     26 C21        -7.7218   -6.6805   -8.8168 C.1       1 <0>         0.2512
     27 N4         -8.4256   -6.2046   -9.5709 N.1       1 <0>        -0.4139
     28 H1          1.0039    1.9031    0.0027 H         1 <0>         0.0787
     29 H2         -0.5459    1.8868   -0.8726 H         1 <0>         0.0632
     30 H3         -0.5289    1.8773    0.9072 H         1 <0>         0.0661
     31 H4          0.5123   -0.3556   -0.8948 H         1 <0>         0.0901
     32 H5          0.7568   -1.6008    1.2356 H         1 <0>         0.0608
     33 H6          1.7647   -0.1336    1.2338 H         1 <0>         0.0726
     34 H7          0.2319   -0.1594    2.1383 H         1 <0>         0.0623
     35 H8         -3.6648   -1.6912   -0.1651 H         1 <0>         0.1439
     36 H9         -4.0430   -3.8744   -1.2864 H         1 <0>         0.1434
     37 H10         0.1242   -3.9968   -2.2080 H         1 <0>         0.1604
     38 H11        -1.2386   -5.9951   -2.4300 H         1 <0>         0.0787
     39 H12        -2.9770   -5.9527   -2.0501 H         1 <0>         0.0776
     40 H13        -2.5123   -4.2827   -4.2797 H         1 <0>         0.3969
     41 H14        -3.7307   -4.6363   -7.4083 H         1 <0>         0.0872
     42 H15        -3.3614   -3.9927   -5.7903 H         1 <0>         0.0817
     43 H16        -0.8154   -4.2740   -6.3958 H         1 <0>         0.1116
     44 H17        -0.5375   -3.4900   -8.6363 H         1 <0>         0.1019
     45 H18        -2.3609   -3.7583   -8.9563 H         1 <0>         0.0993
     46 H19        -2.8537   -6.9101   -7.9563 H         1 <0>         0.0894
     47 H20        -2.5835   -8.0251   -6.5954 H         1 <0>         0.1002
     48 H21        -4.4497   -8.8930   -5.3108 H         1 <0>         0.1390
     49 H22        -6.8367   -9.4865   -5.3027 H         1 <0>         0.1350
     50 H23        -8.3695   -8.4622   -6.9310 H         1 <0>         0.1327
     51 H24        -5.0965   -6.2305   -8.5770 H         1 <0>         0.1298
@<TRIPOS>BOND
     1    1    2 1
     2    1   28 1
     3    1   29 1
     4    1   30 1
     5    2    3 1
     6    2    4 1
     7    2   31 1
     8    3   32 1
     9    3   33 1
    10    3   34 1
    11    4    5 1
    12    5   10 ar
    13    5    6 ar
    14    6    7 ar
    15    6   35 1
    16    7    8 ar
    17    7   36 1
    18    8    9 ar
    19    8   11 1
    20    9   10 ar
    21    9   37 1
    22   11   12 1
    23   11   38 1
    24   11   39 1
    25   12   13 am
    26   12   40 1
    27   13   14 2
    28   13   15 am
    29   15   16 1
    30   15   19 1
    31   16   17 1
    32   16   41 1
    33   16   42 1
    34   17   18 2
    35   17   43 1
    36   18   44 1
    37   18   45 1
    38   19   20 1
    39   19   46 1
    40   19   47 1
    41   20   25 ar
    42   20   21 ar
    43   21   22 ar
    44   21   48 1
    45   22   23 ar
    46   22   49 1
    47   23   24 ar
    48   23   50 1
    49   24   25 ar
    50   24   26 1
    51   25   51 1
    52   26   27 3
@<TRIPOS>MOLECULE
ZINC06606667
   41    43     0     0     0
SMALL
USER_CHARGES
[3-cyano-3-(4-methylthiazol-2-yl)-2-oxo-propyl] 3-pyrrol-1-ylbenzoate
@<TRIPOS>ATOM
      1 C1          5.1577   -7.0954    3.1970 C.3       1 <0>        -0.0829
      2 C2          4.5606   -6.4223    1.9881 C.2       1 <0>         0.0520
      3 C3          3.5663   -7.0174    1.2811 C.2       1 <0>        -0.2032
      4 S1          3.2828   -5.7885    0.0150 S.3       1 <0>         0.1232
      5 C4          4.4794   -4.6450    0.5405 C.2       1 <0>         0.0472
      6 N1          4.9946   -5.2453    1.5885 N.2       1 <0>        -0.4775
      7 C5          4.8390   -3.3090   -0.0570 C.3       1 <0>         0.0933
      8 H1          5.5722   -2.8906    0.4791 H         1 <0>         0.1557
      9 C6          5.2922   -3.4981   -1.4447 C.1       1 <0>         0.1967
     10 N2          5.6421   -3.6441   -2.5155 N.1       1 <0>        -0.3596
     11 C7          3.6295   -2.4100   -0.0417 C.2       1 <0>         0.3641
     12 O1          2.5211   -2.8892   -0.0338 O.2       1 <0>        -0.3808
     13 C8          3.8034   -0.9131   -0.0363 C.3       1 <0>         0.0401
     14 O2          2.4994   -0.2745   -0.0214 O.3       1 <0>        -0.3325
     15 C9          2.4781    1.0724   -0.0148 C.2       1 <0>         0.5160
     16 O3          3.5203    1.6963   -0.0214 O.2       1 <0>        -0.4932
     17 C10         1.1872    1.7907    0.0003 C.ar      1 <0>        -0.0976
     18 C11        -0.0126    1.0758    0.0080 C.ar      1 <0>        -0.0731
     19 C12        -1.2165    1.7495    0.0173 C.ar      1 <0>        -0.0993
     20 C13        -1.2403    3.1320    0.0302 C.ar      1 <0>        -0.1032
     21 C14        -0.0525    3.8522    0.0223 C.ar      1 <0>         0.1348
     22 C15         1.1623    3.1857    0.0076 C.ar      1 <0>        -0.0773
     23 N3         -0.0828    5.2542    0.0296 N.pl3     1 <0>        -0.4009
     24 C16         1.0093    6.0742    0.0295 C.2       1 <0>        -0.0165
     25 C17         0.5768    7.3515    0.0348 C.2       1 <0>        -0.1852
     26 C18        -0.8322    7.3210    0.0475 C.2       1 <0>        -0.1851
     27 C19        -1.2091    6.0263    0.0440 C.2       1 <0>        -0.0171
     28 H2          6.0008   -7.7139    2.8892 H         1 <0>         0.0769
     29 H3          5.5008   -6.3382    3.9020 H         1 <0>         0.0773
     30 H4          4.4033   -7.7209    3.6742 H         1 <0>         0.0773
     31 H5          3.0812   -7.9692    1.4398 H         1 <0>         0.2034
     32 H6          4.3027   -0.6326   -0.8561 H         1 <0>         0.1028
     33 H7          4.3638   -0.6156    0.8500 H         1 <0>         0.1232
     34 H8          0.0021   -0.0041    0.0020 H         1 <0>         0.1485
     35 H9         -2.1434    1.1952    0.0187 H         1 <0>         0.1451
     36 H10        -2.1858    3.6537    0.0424 H         1 <0>         0.1397
     37 H11         2.0867    3.7441    0.0014 H         1 <0>         0.1472
     38 H12         2.0410    5.7550    0.0234 H         1 <0>         0.1668
     39 H13         1.1967    8.2359    0.0336 H         1 <0>         0.1435
     40 H14        -1.4897    8.1778    0.0577 H         1 <0>         0.1435
     41 H15        -2.2261    5.6627    0.0517 H         1 <0>         0.1667
@<TRIPOS>BOND
     1    1    2 1
     2    1   28 1
     3    1   29 1
     4    1   30 1
     5    2    6 1
     6    2    3 2
     7    3    4 1
     8    3   31 1
     9    4    5 1
    10    5    6 2
    11    5    7 1
    12    7    8 1
    13    7    9 1
    14    7   11 1
    15    9   10 3
    16   11   12 2
    17   11   13 1
    18   13   14 1
    19   13   32 1
    20   13   33 1
    21   14   15 1
    22   15   16 2
    23   15   17 1
    24   17   22 ar
    25   17   18 ar
    26   18   19 ar
    27   18   34 1
    28   19   20 ar
    29   19   35 1
    30   20   21 ar
    31   20   36 1
    32   21   22 ar
    33   21   23 1
    34   22   37 1
    35   23   27 1
    36   23   24 1
    37   24   25 2
    38   24   38 1
    39   25   26 1
    40   25   39 1
    41   26   27 2
    42   26   40 1
    43   27   41 1
@<TRIPOS>MOLECULE
ZINC32469391
   47    50     0     0     0
SMALL
USER_CHARGES
2-(benzimidazol-1-yl)-N-cyclopropyl-N-[[(3S)-tetrahydrofuran-3-yl]methyl]ethanesulfonamide
@<TRIPOS>ATOM
      1 C1         -1.7657    7.1955    5.6592 C.ar      1 <0>        -0.1268
      2 C2         -1.2323    7.2016    4.3781 C.ar      1 <0>        -0.0969
      3 C3         -1.6151    6.2496    3.4574 C.ar      1 <0>        -0.1157
      4 C4         -2.5361    5.2753    3.8181 C.ar      1 <0>         0.0456
      5 C5         -3.0802    5.2732    5.1135 C.ar      1 <0>         0.0445
      6 C6         -2.6773    6.2481    6.0300 C.ar      1 <0>        -0.0617
      7 N1         -3.9436    4.2272    5.1780 N.2       1 <0>        -0.4897
      8 C7         -3.9669    3.6081    4.0339 C.2       1 <0>         0.2602
      9 N2         -3.1210    4.2136    3.1573 N.pl3     1 <0>        -0.4885
     10 C8         -2.8721    3.8101    1.7712 C.3       1 <0>         0.1248
     11 C9         -1.6364    2.9096    1.7162 C.3       1 <0>        -0.6635
     12 S1         -1.3282    2.4100   -0.0002 S.o2      1 <0>         2.6097
     13 O1         -0.9313    3.5341   -0.7735 O.2       1 <0>        -0.9374
     14 O2         -2.3639    1.5487   -0.4527 O.2       1 <0>        -0.9386
     15 N3          0.0190    1.4496    0.0715 N.pl3     1 <0>        -0.9956
     16 C10         1.3393    2.0174   -0.2121 C.3       1 <0>         0.1061
     17 C11         1.8687    1.4447   -1.5285 C.3       1 <0>        -0.1565
     18 H1          1.9052    0.3537   -1.3929 H         1 <0>         0.1043
     19 C12         3.2480    2.0588   -1.8707 C.3       1 <0>        -0.1501
     20 C13         3.1343    2.2799   -3.4006 C.3       1 <0>         0.0467
     21 O3          1.7594    2.6819   -3.5816 O.3       1 <0>        -0.3658
     22 C14         0.9650    1.8677   -2.7028 C.3       1 <0>         0.0446
     23 C15        -0.1103    0.0307    0.4127 C.3       1 <0>         0.0172
     24 C16         1.1740   -0.7975    0.4886 C.3       1 <0>        -0.1276
     25 C17         0.2071   -0.9907   -0.6813 C.3       1 <0>        -0.1468
     26 H2         -1.4571    7.9475    6.3703 H         1 <0>         0.1318
     27 H3         -0.5128    7.9575    4.1003 H         1 <0>         0.1324
     28 H4         -1.1967    6.2586    2.4618 H         1 <0>         0.1225
     29 H5         -3.0858    6.2524    7.0297 H         1 <0>         0.1309
     30 H6         -4.5703    2.7402    3.8122 H         1 <0>         0.2158
     31 H7         -3.7440    3.2601    1.3872 H         1 <0>         0.1145
     32 H8         -2.7018    4.7045    1.1539 H         1 <0>         0.1072
     33 H9         -0.7646    3.4596    2.1002 H         1 <0>         0.1419
     34 H10        -1.8067    2.0152    2.3335 H         1 <0>         0.1416
     35 H11         1.2580    3.1113   -0.2945 H         1 <0>         0.0967
     36 H12         2.0314    1.7616    0.6037 H         1 <0>         0.0813
     37 H13         3.3818    2.9953   -1.3094 H         1 <0>         0.0803
     38 H14         4.0432    1.3500   -1.5963 H         1 <0>         0.0840
     39 H15         3.8434    3.0611   -3.7119 H         1 <0>         0.0966
     40 H16         3.3688    1.3419   -3.9251 H         1 <0>         0.0635
     41 H17         0.6033    0.9716   -3.2284 H         1 <0>         0.0579
     42 H18         0.1070    2.4384   -2.3181 H         1 <0>         0.0894
     43 H19        -0.9593    0.2420    1.0794 H         1 <0>         0.1156
     44 H20         2.0446   -0.1251    0.4851 H         1 <0>         0.1134
     45 H21         1.1731   -1.3914    1.4145 H         1 <0>         0.1127
     46 H22        -0.5931   -1.7444   -0.7226 H         1 <0>         0.1154
     47 H23         0.2784   -0.4781   -1.6520 H         1 <0>         0.1123
@<TRIPOS>BOND
     1    1    6 ar
     2    1    2 ar
     3    1   26 1
     4    2    3 ar
     5    2   27 1
     6    3    4 ar
     7    3   28 1
     8    4    9 1
     9    4    5 ar
    10    5    6 ar
    11    5    7 1
    12    6   29 1
    13    7    8 2
    14    8    9 1
    15    8   30 1
    16    9   10 1
    17   10   11 1
    18   10   31 1
    19   10   32 1
    20   11   12 1
    21   11   33 1
    22   11   34 1
    23   12   13 2
    24   12   14 2
    25   12   15 1
    26   15   16 1
    27   15   23 1
    28   16   17 1
    29   16   35 1
    30   16   36 1
    31   17   18 1
    32   17   22 1
    33   17   19 1
    34   19   20 1
    35   19   37 1
    36   19   38 1
    37   20   21 1
    38   20   39 1
    39   20   40 1
    40   21   22 1
    41   22   41 1
    42   22   42 1
    43   23   25 1
    44   23   24 1
    45   23   43 1
    46   24   25 1
    47   24   44 1
    48   24   45 1
    49   25   46 1
    50   25   47 1
@<TRIPOS>MOLECULE
ZINC44446851
   41    42     0     0     0
SMALL
USER_CHARGES

@<TRIPOS>ATOM
      1 C1          1.3448   -7.6729    4.5307 C.3       1 <0>        -0.1324
      2 C2          1.1088   -6.6917    3.4115 C.ar      1 <0>         0.0047
      3 C3          0.3869   -7.0793    2.2963 C.ar      1 <0>        -0.1249
      4 C4          0.1676   -6.1863    1.2682 C.ar      1 <0>        -0.0667
      5 C5          0.6753   -4.8888    1.3547 C.ar      1 <0>        -0.1347
      6 C6          1.4021   -4.5041    2.4823 C.ar      1 <0>         0.0032
      7 C7          1.6098   -5.4057    3.5060 C.ar      1 <0>        -0.0537
      8 N1          2.3752   -4.9977    4.7054 N.pl3     1 <0>         0.0310
      9 O1          2.1531   -5.5225    5.7716 O.2       1 <0>        -0.1427
     10 O2          3.2225   -4.1396    4.6188 O.3       1 <0>        -0.1522
     11 C8          0.4446   -3.9265    0.2563 C.2       1 <0>         0.5614
     12 O3          0.4115   -2.7340    0.4899 O.2       1 <0>        -0.5180
     13 N2          0.2708   -4.3713   -1.0040 N.am      1 <0>        -0.5897
     14 C9          0.3622   -5.8044   -1.2940 C.3       1 <0>         0.0800
     15 C10        -1.0415   -6.3693   -1.5211 C.3       1 <0>         0.0329
     16 O4         -1.6075   -5.7815   -2.6942 O.3       1 <0>        -0.3822
     17 C11        -2.9252   -6.2434   -2.9979 C.3       1 <0>         0.0283
     18 C12        -0.0093   -3.4218   -2.0839 C.3       1 <0>         0.1681
     19 C13         1.2776   -3.0558   -2.7774 C.2       1 <0>        -0.1424
     20 C14         2.0796   -2.0458   -2.2804 C.2       1 <0>        -0.1445
     21 C15         3.2307   -1.7415   -2.9282 C.2       1 <0>        -0.1721
     22 S1          3.2079   -2.9006   -4.2858 S.3       1 <0>         0.0308
     23 C16         1.6686   -3.7160   -3.8949 C.2       1 <0>        -0.1584
     24 H1          0.5900   -7.5304    5.3040 H         1 <0>         0.1004
     25 H2          1.2799   -8.6893    4.1424 H         1 <0>         0.0823
     26 H3          2.3353   -7.5086    4.9550 H         1 <0>         0.0832
     27 H4         -0.0053   -8.0834    2.2307 H         1 <0>         0.1561
     28 H5         -0.3953   -6.4903    0.3981 H         1 <0>         0.1642
     29 H6          1.7979   -3.5019    2.5552 H         1 <0>         0.1610
     30 H7          0.9642   -5.9562   -2.1900 H         1 <0>         0.0936
     31 H8          0.8281   -6.3165   -0.4522 H         1 <0>         0.1150
     32 H9         -0.9819   -7.4501   -1.6489 H         1 <0>         0.0696
     33 H10        -1.6693   -6.1392   -0.6603 H         1 <0>         0.0584
     34 H11        -3.2839   -5.7502   -3.9014 H         1 <0>         0.0903
     35 H12        -2.9047   -7.3217   -3.1563 H         1 <0>         0.0446
     36 H13        -3.5921   -6.0108   -2.1678 H         1 <0>         0.0432
     37 H14        -0.6915   -3.8782   -2.8011 H         1 <0>         0.1091
     38 H15        -0.4663   -2.5237   -1.6685 H         1 <0>         0.0934
     39 H16         1.7933   -1.5068   -1.3893 H         1 <0>         0.1383
     40 H17         3.9697   -0.9920   -2.6862 H         1 <0>         0.1852
     41 H18         1.1762   -4.5247   -4.4144 H         1 <0>         0.1862
@<TRIPOS>BOND
     1    1    2 1
     2    1   24 1
     3    1   25 1
     4    1   26 1
     5    2    7 ar
     6    2    3 ar
     7    3    4 ar
     8    3   27 1
     9    4    5 ar
    10    4   28 1
    11    5    6 ar
    12    5   11 1
    13    6    7 ar
    14    6   29 1
    15    7    8 1
    16    8    9 2
    17    8   10 1
    18   11   12 2
    19   11   13 am
    20   13   14 1
    21   13   18 1
    22   14   15 1
    23   14   30 1
    24   14   31 1
    25   15   16 1
    26   15   32 1
    27   15   33 1
    28   16   17 1
    29   17   34 1
    30   17   35 1
    31   17   36 1
    32   18   19 1
    33   18   37 1
    34   18   38 1
    35   19   23 2
    36   19   20 1
    37   20   21 2
    38   20   39 1
    39   21   22 1
    40   21   40 1
    41   22   23 1
    42   23   41 1
@<TRIPOS>MOLECULE
ZINC63199460
   41    42     0     0     0
SMALL
USER_CHARGES

@<TRIPOS>ATOM
      1 C1          0.0889    0.9511   -0.4660 C.3       1 <0>        -0.1475
      2 C2          0.5673   -0.4946   -0.6142 C.3       1 <0>        -0.0364
      3 C3          1.4413   -0.8572    0.5587 C.2       1 <0>         0.0596
      4 N1          1.0880   -1.3839    1.7046 N.2       1 <0>        -0.5026
      5 C4          1.9768   -1.6465    2.6419 C.2       1 <0>         0.0393
      6 C5          3.2713   -1.3461    2.3638 C.2       1 <0>        -0.2218
      7 S1          3.1092   -0.6904    0.7109 S.3       1 <0>         0.1090
      8 C6          1.5744   -2.2520    3.9619 C.3       1 <0>         0.1859
      9 N2          1.1674   -1.1883    4.8833 N.pl3     1 <0>        -0.9985
     10 C7         -0.1764   -0.6125    4.7896 C.3       1 <0>         0.0850
     11 S2          2.2264   -0.6366    6.0307 S.o2      1 <0>         2.6983
     12 O1          1.4393   -0.1419    7.1055 O.2       1 <0>        -0.9366
     13 O2          3.2016   -1.6552    6.2065 O.2       1 <0>        -0.9335
     14 C8          3.0657    0.7506    5.3411 C.ar      1 <0>        -0.6186
     15 C9          2.6101    1.3230    4.1714 C.ar      1 <0>        -0.0395
     16 C10         3.2677    2.4125    3.6288 C.ar      1 <0>        -0.0984
     17 C11         4.3861    2.9355    4.2540 C.ar      1 <0>        -0.0794
     18 C12         4.8524    2.3731    5.4238 C.ar      1 <0>        -0.0732
     19 C13         4.1900    1.2767    5.9801 C.ar      1 <0>        -0.0324
     20 C14         4.6803    0.6725    7.2358 C.2       1 <0>         0.4930
     21 O3          4.0379   -0.2031    7.7799 O.2       1 <0>        -0.4798
     22 O4          5.8399    1.0928    7.7776 O.3       1 <0>        -0.3389
     23 C15         6.3178    0.3804    8.9205 C.3       1 <0>         0.0297
     24 H1          0.9508    1.6177   -0.4354 H         1 <0>         0.0576
     25 H2         -0.5433    1.2134   -1.3143 H         1 <0>         0.0715
     26 H3         -0.4816    1.0523    0.4573 H         1 <0>         0.0622
     27 H4         -0.2946   -1.1611   -0.6448 H         1 <0>         0.0986
     28 H5          1.1377   -0.5957   -1.5374 H         1 <0>         0.0907
     29 H6          4.1546   -1.4722    2.9723 H         1 <0>         0.1961
     30 H7          0.7414   -2.9379    3.8081 H         1 <0>         0.1048
     31 H8          2.4193   -2.7955    4.3849 H         1 <0>         0.1151
     32 H9         -0.8582   -1.1754    5.4272 H         1 <0>         0.0677
     33 H10        -0.1497    0.4274    5.1151 H         1 <0>         0.0685
     34 H11        -0.5213   -0.6611    3.7567 H         1 <0>         0.0851
     35 H12         1.7383    0.9194    3.6780 H         1 <0>         0.1387
     36 H13         2.9068    2.8568    2.7129 H         1 <0>         0.1393
     37 H14         4.8951    3.7858    3.8246 H         1 <0>         0.1440
     38 H15         5.7253    2.7822    5.9107 H         1 <0>         0.1511
     39 H16         7.2535    0.8243    9.2602 H         1 <0>         0.1096
     40 H17         5.5780    0.4365    9.7191 H         1 <0>         0.0682
     41 H18         6.4863   -0.6630    8.6539 H         1 <0>         0.0686
@<TRIPOS>BOND
     1    1    2 1
     2    1   24 1
     3    1   25 1
     4    1   26 1
     5    2    3 1
     6    2   27 1
     7    2   28 1
     8    3    7 1
     9    3    4 2
    10    4    5 1
    11    5    6 2
    12    5    8 1
    13    6    7 1
    14    6   29 1
    15    8    9 1
    16    8   30 1
    17    8   31 1
    18    9   10 1
    19    9   11 1
    20   10   32 1
    21   10   33 1
    22   10   34 1
    23   11   12 2
    24   11   13 2
    25   11   14 1
    26   14   19 ar
    27   14   15 ar
    28   15   16 ar
    29   15   35 1
    30   16   17 ar
    31   16   36 1
    32   17   18 ar
    33   17   37 1
    34   18   19 ar
    35   18   38 1
    36   19   20 1
    37   20   21 2
    38   20   22 1
    39   22   23 1
    40   23   39 1
    41   23   40 1
    42   23   41 1
@<TRIPOS>MOLECULE
ZINC66235694
   37    37     0     0     0
SMALL
USER_CHARGES

@<TRIPOS>ATOM
      1 C1         -0.6129    1.5432   -0.2189 C.3       1 <0>         0.0340
      2 O1         -0.3058    0.1508   -0.1253 O.3       1 <0>        -0.3511
      3 C2          0.3347   -0.4033   -1.1667 C.2       1 <0>         0.4434
      4 O2          0.6249    0.2715   -2.1260 O.2       1 <0>        -0.4947
      5 C3          0.6917   -1.8672   -1.1395 C.3       1 <0>         0.1277
      6 N1          1.3795   -2.2253   -2.3824 N.am      1 <0>        -0.5808
      7 C4          2.8383   -2.1224   -2.4682 C.3       1 <0>         0.1137
      8 C5          3.4647   -3.3600   -1.8791 C.2       1 <0>         0.4362
      9 O3          2.7644   -4.2379   -1.4333 O.2       1 <0>        -0.4895
     10 O4          4.8007   -3.4870   -1.8497 O.3       1 <0>        -0.3472
     11 C6          5.3258   -4.6862   -1.2768 C.3       1 <0>         0.0310
     12 C7          0.6701   -2.6494   -3.4470 C.2       1 <0>         0.5759
     13 O5         -0.5448   -2.6478   -3.4075 O.2       1 <0>        -0.5011
     14 C8          1.3695   -3.1167   -4.6628 C.ar      1 <0>        -0.0990
     15 C9          2.4104   -4.0411   -4.5611 C.ar      1 <0>        -0.1014
     16 C10         3.0586   -4.4734   -5.6995 C.ar      1 <0>        -0.0692
     17 C11         2.6793   -3.9924   -6.9401 C.ar      1 <0>        -0.1596
     18 C12         1.6486   -3.0757   -7.0479 C.ar      1 <0>        -0.0684
     19 C13         0.9880   -2.6399   -5.9179 C.ar      1 <0>        -0.0633
     20 C14         3.3923   -4.4687   -8.1794 C.3       1 <0>         0.5078
     21 F1          2.7471   -5.6041   -8.6812 F         1 <0>        -0.1723
     22 F2          3.3745   -3.4571   -9.1456 F         1 <0>        -0.1731
     23 F3          4.7170   -4.7872   -7.8620 F         1 <0>        -0.1738
     24 H1          0.3100    2.1121   -0.3315 H         1 <0>         0.0619
     25 H2         -1.2543    1.7165   -1.0831 H         1 <0>         0.0623
     26 H3         -1.1288    1.8632    0.6864 H         1 <0>         0.1053
     27 H4          1.3472   -2.0655   -0.2914 H         1 <0>         0.1277
     28 H5         -0.2171   -2.4611   -1.0430 H         1 <0>         0.1364
     29 H6          3.1350   -2.0270   -3.5127 H         1 <0>         0.1342
     30 H7          3.1740   -1.2461   -1.9137 H         1 <0>         0.1310
     31 H8          6.4148   -4.6609   -1.3157 H         1 <0>         0.1076
     32 H9          5.0011   -4.7658   -0.2394 H         1 <0>         0.0644
     33 H10         4.9621   -5.5467   -1.8384 H         1 <0>         0.0637
     34 H11         2.7079   -4.4167   -3.5932 H         1 <0>         0.1383
     35 H12         3.8642   -5.1886   -5.6222 H         1 <0>         0.1454
     36 H13         1.3576   -2.7038   -8.0193 H         1 <0>         0.1486
     37 H14         0.1804   -1.9280   -6.0038 H         1 <0>         0.1479
@<TRIPOS>BOND
     1    1    2 1
     2    1   24 1
     3    1   25 1
     4    1   26 1
     5    2    3 1
     6    3    4 2
     7    3    5 1
     8    5    6 1
     9    5   27 1
    10    5   28 1
    11    6    7 1
    12    6   12 am
    13    7    8 1
    14    7   29 1
    15    7   30 1
    16    8    9 2
    17    8   10 1
    18   10   11 1
    19   11   31 1
    20   11   32 1
    21   11   33 1
    22   12   13 2
    23   12   14 1
    24   14   19 ar
    25   14   15 ar
    26   15   16 ar
    27   15   34 1
    28   16   17 ar
    29   16   35 1
    30   17   18 ar
    31   17   20 1
    32   18   19 ar
    33   18   36 1
    34   19   37 1
    35   20   21 1
    36   20   22 1
    37   20   23 1
@<TRIPOS>MOLECULE
ZINC00669582
   44    47     0     0     0
SMALL
USER_CHARGES
5-[(1-allylindol-3-yl)methylene]-2-phenyl-1,3-dioxane-4,6-dione
@<TRIPOS>ATOM
      1 C1          3.2396    4.5319   -0.0116 C.2       1 <0>        -0.1490
      2 C2          2.0746    3.9447    0.1059 C.2       1 <0>        -0.1906
      3 C3          1.5237    3.1285   -1.0350 C.3       1 <0>         0.1277
      4 N1          1.2056    1.7792   -0.5612 N.pl3     1 <0>        -0.4470
      5 C4          2.0304    0.7208   -0.6589 C.2       1 <0>         0.1797
      6 C5          1.4186   -0.3949   -0.1147 C.2       1 <0>        -0.2386
      7 C6          0.0914    0.0534    0.3539 C.ar      1 <0>        -0.0600
      8 C7          0.0184    1.4209    0.0465 C.ar      1 <0>         0.0759
      9 C8         -1.1299    2.1325    0.3774 C.ar      1 <0>        -0.1110
     10 C9         -2.1838    1.4912    0.9922 C.ar      1 <0>        -0.1040
     11 C10        -2.1091    0.1401    1.2948 C.ar      1 <0>        -0.1230
     12 C11        -0.9772   -0.5810    0.9787 C.ar      1 <0>        -0.0838
     13 C12         1.9541   -1.6964   -0.0253 C.2       1 <0>         0.1759
     14 C13         3.3225   -1.8933   -0.1442 C.2       1 <0>        -0.3850
     15 C14         4.2967   -0.7734   -0.1608 C.2       1 <0>         0.5360
     16 O1          4.1396    0.2365    0.4983 O.2       1 <0>        -0.4351
     17 O2          5.3799   -0.9547   -0.9619 O.3       1 <0>        -0.3702
     18 C15         6.0200   -2.2586   -0.8633 C.3       1 <0>         0.3316
     19 O3          5.0318   -3.3070   -1.0729 O.3       1 <0>        -0.3679
     20 C16         3.9321   -3.2409   -0.2717 C.2       1 <0>         0.5430
     21 O4          3.4815   -4.2162    0.2981 O.2       1 <0>        -0.4344
     22 C17         7.0973   -2.3681   -1.9114 C.ar      1 <0>        -0.1073
     23 C18         7.0346   -3.3666   -2.8653 C.ar      1 <0>        -0.0766
     24 C19         8.0202   -3.4640   -3.8297 C.ar      1 <0>        -0.1235
     25 C20         9.0740   -2.5694   -3.8338 C.ar      1 <0>        -0.0995
     26 C21         9.1394   -1.5741   -2.8767 C.ar      1 <0>        -0.1230
     27 C22         8.1511   -1.4734   -1.9155 C.ar      1 <0>        -0.0825
     28 H1          3.8054    4.4312   -0.9261 H         1 <0>         0.1021
     29 H2          3.6344    5.1168    0.8060 H         1 <0>         0.1085
     30 H3          1.5088    4.0454    1.0203 H         1 <0>         0.1176
     31 H4          2.2663    3.0686   -1.8306 H         1 <0>         0.1012
     32 H5          0.6193    3.6021   -1.4170 H         1 <0>         0.1037
     33 H6          3.0181    0.7390   -1.0953 H         1 <0>         0.1794
     34 H7         -1.1985    3.1854    0.1466 H         1 <0>         0.1235
     35 H8         -3.0747    2.0472    1.2443 H         1 <0>         0.1305
     36 H9         -2.9408   -0.3494    1.7796 H         1 <0>         0.1295
     37 H10        -0.9204   -1.6332    1.2154 H         1 <0>         0.1284
     38 H11         1.2992   -2.5399    0.1358 H         1 <0>         0.1514
     39 H12         6.4637   -2.3710    0.1260 H         1 <0>         0.1110
     40 H13         6.2137   -4.0683   -2.8594 H         1 <0>         0.1372
     41 H14         7.9693   -4.2419   -4.5772 H         1 <0>         0.1301
     42 H15         9.8464   -2.6482   -4.5845 H         1 <0>         0.1279
     43 H16         9.9629   -0.8753   -2.8797 H         1 <0>         0.1303
     44 H17         8.2024   -0.6960   -1.1676 H         1 <0>         0.1301
@<TRIPOS>BOND
     1    1    2 2
     2    1   28 1
     3    1   29 1
     4    2    3 1
     5    2   30 1
     6    3    4 1
     7    3   31 1
     8    3   32 1
     9    4    8 1
    10    4    5 1
    11    5    6 2
    12    5   33 1
    13    6    7 1
    14    6   13 1
    15    7   12 ar
    16    7    8 ar
    17    8    9 ar
    18    9   10 ar
    19    9   34 1
    20   10   11 ar
    21   10   35 1
    22   11   12 ar
    23   11   36 1
    24   12   37 1
    25   13   14 2
    26   13   38 1
    27   14   20 1
    28   14   15 1
    29   15   16 2
    30   15   17 1
    31   17   18 1
    32   18   19 1
    33   18   22 1
    34   18   39 1
    35   19   20 1
    36   20   21 2
    37   22   27 ar
    38   22   23 ar
    39   23   24 ar
    40   23   40 1
    41   24   25 ar
    42   24   41 1
    43   25   26 ar
    44   25   42 1
    45   26   27 ar
    46   26   43 1
    47   27   44 1
@<TRIPOS>MOLECULE
ZINC09366105
   44    47     0     0     0
SMALL
USER_CHARGES
8-[[5-(4-fluorophenyl)-4-methyl-isoxazol-3-yl]methylsulfanyl]-7,9,10-triazabicyclo[5.3.0]deca-8,10-diene
@<TRIPOS>ATOM
      1 C1          0.0506   -0.0007    0.1270 C.3       1 <0>        -0.0843
      2 C2          0.0024    1.5042    0.0639 C.2       1 <0>        -0.1606
      3 C3          1.0683    2.3992   -0.1608 C.2       1 <0>         0.0227
      4 N1          0.5599    3.5984   -0.1311 N.2       1 <0>        -0.3373
      5 O1         -0.6315    3.5788    0.0733 O.3       1 <0>         0.1258
      6 C4         -1.0871    2.3202    0.2055 C.2       1 <0>         0.0060
      7 C5         -2.4827    1.9026    0.4559 C.ar      1 <0>        -0.0371
      8 C6         -3.5248    2.4612   -0.2862 C.ar      1 <0>        -0.0585
      9 C7         -4.8246    2.0652   -0.0512 C.ar      1 <0>        -0.1519
     10 C8         -5.0982    1.1212    0.9260 C.ar      1 <0>         0.1175
     11 C9         -4.0678    0.5669    1.6690 C.ar      1 <0>        -0.1517
     12 C10        -2.7639    0.9525    1.4392 C.ar      1 <0>        -0.0565
     13 F1         -6.3739    0.7402    1.1555 F         1 <0>        -0.1330
     14 C11         2.5135    2.0391   -0.3905 C.3       1 <0>        -0.0240
     15 S1          2.8051    1.8149   -2.1628 S.3       1 <0>         0.0257
     16 C12         4.5206    1.4132   -2.1422 C.2       1 <0>         0.1481
     17 N2          5.2920    1.3245   -1.0813 N.2       1 <0>        -0.2908
     18 N3          6.4878    1.0060   -1.4349 N.2       1 <0>        -0.2818
     19 C13         6.5470    0.8706   -2.7267 C.2       1 <0>         0.1943
     20 N4          5.3003    1.1293   -3.2210 N.pl3     1 <0>        -0.4560
     21 C14         4.9016    1.1155   -4.6283 C.3       1 <0>         0.1024
     22 C15         5.7944    0.1372   -5.3973 C.3       1 <0>        -0.1397
     23 C16         7.0341    0.8656   -5.9128 C.3       1 <0>        -0.1258
     24 C17         7.8552    1.4183   -4.7522 C.3       1 <0>        -0.1252
     25 C18         7.7482    0.4835   -3.5501 C.3       1 <0>        -0.0370
     26 H1          0.1449   -0.3180    1.1655 H         1 <0>         0.0795
     27 H2         -0.8659   -0.4116   -0.2966 H         1 <0>         0.0783
     28 H3          0.9074   -0.3610   -0.4423 H         1 <0>         0.0778
     29 H4         -3.3131    3.1999   -1.0450 H         1 <0>         0.1412
     30 H5         -5.6313    2.4943   -0.6270 H         1 <0>         0.1445
     31 H6         -4.2864   -0.1681    2.4295 H         1 <0>         0.1452
     32 H7         -1.9618    0.5206    2.0192 H         1 <0>         0.1405
     33 H8          3.1514    2.8396   -0.0158 H         1 <0>         0.1180
     34 H9          2.7454    1.1132    0.1358 H         1 <0>         0.1223
     35 H10         3.8616    0.7993   -4.7088 H         1 <0>         0.0977
     36 H11         5.0120    2.1155   -5.0476 H         1 <0>         0.0937
     37 H12         6.0992   -0.6729   -4.7348 H         1 <0>         0.0820
     38 H13         5.2392   -0.2745   -6.2401 H         1 <0>         0.0921
     39 H14         7.6465    0.1703   -6.4869 H         1 <0>         0.0762
     40 H15         6.7252    1.6881   -6.5579 H         1 <0>         0.0715
     41 H16         8.8992    1.5023   -5.0541 H         1 <0>         0.0841
     42 H17         7.4769    2.4028   -4.4767 H         1 <0>         0.0649
     43 H18         8.6485    0.5604   -2.9404 H         1 <0>         0.1042
     44 H19         7.6326   -0.5408   -3.9046 H         1 <0>         0.0950
@<TRIPOS>BOND
     1    1    2 1
     2    1   26 1
     3    1   27 1
     4    1   28 1
     5    2    6 2
     6    2    3 1
     7    3    4 2
     8    3   14 1
     9    4    5 1
    10    5    6 1
    11    6    7 1
    12    7   12 ar
    13    7    8 ar
    14    8    9 ar
    15    8   29 1
    16    9   10 ar
    17    9   30 1
    18   10   11 ar
    19   10   13 1
    20   11   12 ar
    21   11   31 1
    22   12   32 1
    23   14   15 1
    24   14   33 1
    25   14   34 1
    26   15   16 1
    27   16   20 1
    28   16   17 2
    29   17   18 1
    30   18   19 2
    31   19   25 1
    32   19   20 1
    33   20   21 1
    34   21   22 1
    35   21   35 1
    36   21   36 1
    37   22   23 1
    38   22   37 1
    39   22   38 1
    40   23   24 1
    41   23   39 1
    42   23   40 1
    43   24   25 1
    44   24   41 1
    45   24   42 1
    46   25   43 1
    47   25   44 1
@<TRIPOS>MOLECULE
ZINC02124417
   45    48     0     0     0
SMALL
USER_CHARGES

@<TRIPOS>ATOM
      1 C1         -3.7455    3.9857    1.3138 C.3       1 <0>        -0.1518
      2 C2         -2.9596    2.7372    0.9085 C.3       1 <0>        -0.1194
      3 C3         -3.9130    1.5448    0.8074 C.3       1 <0>        -0.1312
      4 C4         -3.1270    0.2963    0.4021 C.3       1 <0>         0.1049
      5 N1         -4.0399   -0.8454    0.3054 N.am      1 <0>        -0.5785
      6 C5         -4.2681   -1.6094    1.3992 C.2       1 <0>         0.5758
      7 O1         -3.7308   -1.3690    2.4640 O.2       1 <0>        -0.4911
      8 C6         -5.1943   -2.7430    1.2456 C.2       1 <0>        -0.2611
      9 C7         -5.5032   -3.5897    2.2906 C.2       1 <0>         0.1015
     10 C8         -6.4039   -4.6565    2.0598 C.ar      1 <0>        -0.1454
     11 C9         -6.7377   -5.5348    3.1045 C.ar      1 <0>        -0.0362
     12 C10        -7.6064   -6.5610    2.8775 C.ar      1 <0>        -0.1448
     13 C11        -8.1667   -6.7476    1.6194 C.ar      1 <0>        -0.0356
     14 C12        -7.8560   -5.9009    0.5791 C.ar      1 <0>        -0.1597
     15 C13        -6.9710   -4.8437    0.7831 C.ar      1 <0>         0.2106
     16 N2         -6.6614   -3.9961   -0.2605 N.pl3     1 <0>        -0.4206
     17 C14        -5.7967   -2.9583   -0.0738 C.2       1 <0>         0.4919
     18 N3         -5.4783   -2.1253   -1.0560 N.2       1 <0>        -0.6011
     19 C15        -4.6396   -1.1126   -0.8638 C.2       1 <0>         0.6791
     20 O2         -4.3966   -0.3841   -1.8104 O.2       1 <0>        -0.5103
     21 C16        -7.2380   -4.2030   -1.5190 C.ar      1 <0>         0.0914
     22 C17        -8.4433   -3.5921   -1.8406 C.ar      1 <0>        -0.0590
     23 C18        -9.0102   -3.7972   -3.0830 C.ar      1 <0>        -0.1423
     24 C19        -8.3779   -4.6113   -4.0079 C.ar      1 <0>         0.1248
     25 C20        -7.1761   -5.2214   -3.6893 C.ar      1 <0>        -0.1424
     26 C21        -6.6030   -5.0149   -2.4500 C.ar      1 <0>        -0.0589
     27 F1         -8.9345   -4.8110   -5.2226 F         1 <0>        -0.1295
     28 H1         -3.0663    4.8352    1.3857 H         1 <0>         0.0565
     29 H2         -4.5091    4.1936    0.5642 H         1 <0>         0.0542
     30 H3         -4.2211    3.8179    2.2801 H         1 <0>         0.0534
     31 H4         -2.4840    2.9050   -0.0579 H         1 <0>         0.0662
     32 H5         -2.1960    2.5293    1.6580 H         1 <0>         0.0651
     33 H6         -4.3886    1.3770    1.7737 H         1 <0>         0.0648
     34 H7         -4.6766    1.7527    0.0579 H         1 <0>         0.0682
     35 H8         -2.6514    0.4641   -0.5642 H         1 <0>         0.0991
     36 H9         -2.3634    0.0884    1.1517 H         1 <0>         0.0934
     37 H10        -5.0652   -3.4411    3.2666 H         1 <0>         0.1690
     38 H11        -6.3067   -5.3976    4.0852 H         1 <0>         0.1475
     39 H12        -7.8609   -7.2349    3.6822 H         1 <0>         0.1408
     40 H13        -8.8528   -7.5655    1.4560 H         1 <0>         0.1426
     41 H14        -8.2976   -6.0558   -0.3942 H         1 <0>         0.1430
     42 H15        -8.9368   -2.9574   -1.1195 H         1 <0>         0.1390
     43 H16        -9.9475   -3.3227   -3.3334 H         1 <0>         0.1485
     44 H17        -6.6847   -5.8559   -4.4120 H         1 <0>         0.1485
     45 H18        -5.6638   -5.4876   -2.2034 H         1 <0>         0.1391
@<TRIPOS>BOND
     1    1    2 1
     2    1   28 1
     3    1   29 1
     4    1   30 1
     5    2    3 1
     6    2   31 1
     7    2   32 1
     8    3    4 1
     9    3   33 1
    10    3   34 1
    11    4    5 1
    12    4   35 1
    13    4   36 1
    14    5   19 am
    15    5    6 am
    16    6    7 2
    17    6    8 1
    18    8   17 1
    19    8    9 2
    20    9   10 1
    21    9   37 1
    22   10   15 ar
    23   10   11 ar
    24   11   12 ar
    25   11   38 1
    26   12   13 ar
    27   12   39 1
    28   13   14 ar
    29   13   40 1
    30   14   15 ar
    31   14   41 1
    32   15   16 1
    33   16   17 1
    34   16   21 1
    35   17   18 2
    36   18   19 1
    37   19   20 2
    38   21   26 ar
    39   21   22 ar
    40   22   23 ar
    41   22   42 1
    42   23   24 ar
    43   23   43 1
    44   24   25 ar
    45   24   27 1
    46   25   26 ar
    47   25   44 1
    48   26   45 1
@<TRIPOS>MOLECULE
ZINC49483944
   39    42     0     0     0
SMALL
USER_CHARGES

@<TRIPOS>ATOM
      1 C1         -0.0166    1.3742    0.0096 C.ar      1 <0>        -0.1167
      2 C2          1.1704    2.0870    0.0021 C.ar      1 <0>        -0.0932
      3 C3          2.3841    1.4239   -0.0130 C.ar      1 <0>        -0.1117
      4 C4          2.4204    0.0436   -0.0207 C.ar      1 <0>        -0.0149
      5 C5          1.2246   -0.6834   -0.0132 C.ar      1 <0>        -0.0701
      6 C6          0.0021   -0.0041    0.0020 C.ar      1 <0>        -0.0888
      7 C7          1.2533   -2.1546   -0.0218 C.2       1 <0>        -0.0161
      8 C8          0.0989   -2.8516   -0.0145 C.2       1 <0>        -0.2038
      9 C9          0.1275   -4.3151   -0.0231 C.2       1 <0>         0.5844
     10 O1          1.1931   -4.9028   -0.0368 O.2       1 <0>        -0.5284
     11 N1         -1.0263   -5.0116   -0.0158 N.am      1 <0>        -0.6441
     12 C10        -2.4603   -4.6853   -0.0066 C.3       1 <0>         0.1155
     13 C11        -2.7063   -6.0291    0.6932 C.3       1 <0>        -0.0497
     14 C12        -1.4054   -6.4326   -0.0202 C.3       1 <0>         0.1168
     15 C13        -3.9283   -6.7646    0.2066 C.2       1 <0>         0.3082
     16 N2         -4.9543   -7.0993    0.9350 N.2       1 <0>        -0.5246
     17 C14        -5.8644   -7.7447    0.1805 C.2       1 <0>         0.3421
     18 N3         -5.4094   -7.8216   -1.0486 N.2       1 <0>        -0.3195
     19 O2         -4.1436   -7.1784   -1.0489 O.3       1 <0>        -0.0944
     20 C15        -7.1578   -8.2768    0.6563 C.2       1 <0>        -0.1324
     21 C16        -8.1267   -8.9448   -0.0448 C.2       1 <0>        -0.0885
     22 C17        -9.2626   -9.3505    0.6182 C.2       1 <0>        -0.1702
     23 C18        -9.3889   -9.0775    1.9432 C.2       1 <0>        -0.1527
     24 S1         -7.8615   -8.2234    2.2963 S.3       1 <0>         0.1400
     25 Cl1         3.9446   -0.7872   -0.0403 Cl        1 <0>        -0.0544
     26 H1         -0.9600    1.8997    0.0259 H         1 <0>         0.1347
     27 H2          1.1484    3.1668    0.0077 H         1 <0>         0.1365
     28 H3          3.3057    1.9871   -0.0191 H         1 <0>         0.1391
     29 H4         -0.9250   -0.5580    0.0082 H         1 <0>         0.1367
     30 H5          2.1990   -2.6762   -0.0340 H         1 <0>         0.1437
     31 H6         -0.8467   -2.3300   -0.0024 H         1 <0>         0.1318
     32 H7         -2.7050   -3.8222    0.6125 H         1 <0>         0.1006
     33 H8         -2.8988   -4.6280   -1.0029 H         1 <0>         0.0997
     34 H9         -2.6297   -5.9877    1.7798 H         1 <0>         0.1580
     35 H10        -1.5659   -6.8360   -1.0200 H         1 <0>         0.1008
     36 H11        -0.7515   -7.0582    0.5874 H         1 <0>         0.0998
     37 H12        -8.0018   -9.1490   -1.0979 H         1 <0>         0.1434
     38 H13       -10.0437   -9.8788    0.0918 H         1 <0>         0.1456
     39 H14       -10.2023   -9.3185    2.6116 H         1 <0>         0.1966
@<TRIPOS>BOND
     1    1    6 ar
     2    1    2 ar
     3    1   26 1
     4    2    3 ar
     5    2   27 1
     6    3    4 ar
     7    3   28 1
     8    4    5 ar
     9    4   25 1
    10    5    6 ar
    11    5    7 1
    12    6   29 1
    13    7    8 2
    14    7   30 1
    15    8    9 1
    16    8   31 1
    17    9   10 2
    18    9   11 am
    19   11   14 1
    20   11   12 1
    21   12   13 1
    22   12   32 1
    23   12   33 1
    24   13   14 1
    25   13   15 1
    26   13   34 1
    27   14   35 1
    28   14   36 1
    29   15   19 1
    30   15   16 2
    31   16   17 1
    32   17   18 2
    33   17   20 1
    34   18   19 1
    35   20   24 1
    36   20   21 2
    37   21   22 1
    38   21   37 1
    39   22   23 2
    40   22   38 1
    41   23   24 1
    42   23   39 1
@<TRIPOS>MOLECULE
ZINC64845235
   42    44     0     0     0
SMALL
USER_CHARGES

@<TRIPOS>ATOM
      1 C1          0.4413    0.2110    2.4703 C.3       1 <0>        -0.1144
      2 C2         -0.1825   -0.8979    3.2780 C.ar      1 <0>        -0.0737
      3 C3         -0.4439   -0.7098    4.6231 C.ar      1 <0>        -0.1113
      4 C4         -1.0157   -1.7246    5.3680 C.ar      1 <0>        -0.0962
      5 C5         -1.3281   -2.9301    4.7705 C.ar      1 <0>        -0.1119
      6 C6         -1.0673   -3.1222    3.4199 C.ar      1 <0>         0.1350
      7 C7         -0.4975   -2.0985    2.6732 C.ar      1 <0>        -0.1172
      8 N1         -1.3820   -4.3400    2.8125 N.pl3     1 <0>        -0.9442
      9 C8         -2.2705   -4.3698    1.6480 C.3       1 <0>         0.0775
     10 S1         -0.7509   -5.7501    3.4087 S.o2      1 <0>         2.6918
     11 O1         -0.4667   -5.5194    4.7818 O.2       1 <0>        -0.9292
     12 O2         -1.6096   -6.7954    2.9737 O.2       1 <0>        -0.9470
     13 C9          0.7987   -6.0061    2.6099 C.2       1 <0>        -0.6860
     14 C10         0.8844   -6.5702    1.3847 C.2       1 <0>        -0.0560
     15 S2          2.6412   -6.5765    1.0888 S.3       1 <0>         0.2366
     16 C11         3.1615   -5.8706    2.5214 C.2       1 <0>        -0.1878
     17 C12         2.0053   -5.6319    3.2058 C.2       1 <0>        -0.0227
     18 C13         2.0295   -5.0008    4.5405 C.2       1 <0>         0.0964
     19 C14         1.7844   -5.6221    5.7280 C.2       1 <0>        -0.2024
     20 C15         1.9088   -4.6700    6.7484 C.2       1 <0>         0.0808
     21 N2          2.2151   -3.5243    6.2047 N.2       1 <0>        -0.3126
     22 O3          2.3034   -3.7091    4.8036 O.3       1 <0>        -0.0678
     23 C16         4.5744   -5.5665    2.9485 C.3       1 <0>        -0.0752
     24 C17        -0.2250   -7.0684    0.4947 C.3       1 <0>        -0.1159
     25 H1         -0.3435    0.8385    2.0478 H         1 <0>         0.0712
     26 H2          1.0813    0.8140    3.1144 H         1 <0>         0.0689
     27 H3          1.0372   -0.2175    1.6644 H         1 <0>         0.0652
     28 H4         -0.2006    0.2318    5.0927 H         1 <0>         0.1239
     29 H5         -1.2178   -1.5747    6.4182 H         1 <0>         0.1261
     30 H6         -1.7744   -3.7226    5.3530 H         1 <0>         0.1310
     31 H7         -0.2972   -2.2432    1.6218 H         1 <0>         0.1225
     32 H8         -1.6748   -4.3411    0.7357 H         1 <0>         0.0597
     33 H9         -2.8631   -5.2844    1.6665 H         1 <0>         0.0899
     34 H10        -2.9346   -3.5059    1.6756 H         1 <0>         0.0862
     35 H11         1.5374   -6.6652    5.8596 H         1 <0>         0.1530
     36 H12         1.7738   -4.8532    7.8041 H         1 <0>         0.1965
     37 H13         5.2657   -5.8791    2.1659 H         1 <0>         0.0799
     38 H14         4.6796   -4.4952    3.1196 H         1 <0>         0.0872
     39 H15         4.7997   -6.1054    3.8688 H         1 <0>         0.0850
     40 H16        -0.6625   -6.2287   -0.0452 H         1 <0>         0.0945
     41 H17         0.1766   -7.7889   -0.2179 H         1 <0>         0.0923
     42 H18        -0.9915   -7.5480    1.1034 H         1 <0>         0.1202
@<TRIPOS>BOND
     1    1    2 1
     2    1   25 1
     3    1   26 1
     4    1   27 1
     5    2    7 ar
     6    2    3 ar
     7    3    4 ar
     8    3   28 1
     9    4    5 ar
    10    4   29 1
    11    5    6 ar
    12    5   30 1
    13    6    7 ar
    14    6    8 1
    15    7   31 1
    16    8    9 1
    17    8   10 1
    18    9   32 1
    19    9   33 1
    20    9   34 1
    21   10   11 2
    22   10   12 2
    23   10   13 1
    24   13   17 1
    25   13   14 2
    26   14   15 1
    27   14   24 1
    28   15   16 1
    29   16   17 2
    30   16   23 1
    31   17   18 1
    32   18   22 1
    33   18   19 2
    34   19   20 1
    35   19   35 1
    36   20   21 2
    37   20   36 1
    38   21   22 1
    39   23   37 1
    40   23   38 1
    41   23   39 1
    42   24   40 1
    43   24   41 1
    44   24   42 1
@<TRIPOS>MOLECULE
ZINC02624341
   37    39     0     0     0
SMALL
USER_CHARGES
1-(4-ethoxyphenyl)-2-[[5-(2-thienyl)-1,3,4-oxadiazol-2-yl]sulfanyl]ethanone
@<TRIPOS>ATOM
      1 C1          2.3207   -4.1971   -0.0435 C.3       1 <0>        -0.1544
      2 C2          2.5067   -2.6785   -0.0372 C.3       1 <0>         0.0505
      3 O1          1.2274   -2.0420   -0.0211 O.3       1 <0>        -0.3088
      4 C3          1.2144   -0.6854   -0.0137 C.ar      1 <0>         0.1734
      5 C4          0.0021   -0.0041    0.0020 C.ar      1 <0>        -0.1660
      6 C5         -0.0165    1.3670    0.0096 C.ar      1 <0>        -0.0106
      7 C6          1.1881    2.0811    0.0019 C.ar      1 <0>        -0.2111
      8 C7          2.4060    1.3902   -0.0130 C.ar      1 <0>        -0.0252
      9 C8          2.4136    0.0190   -0.0213 C.ar      1 <0>        -0.2233
     10 C9          1.1741    3.5496    0.0094 C.2       1 <0>         0.4240
     11 O2          0.1179    4.1460    0.0223 O.2       1 <0>        -0.4376
     12 C10         2.4719    4.3156    0.0011 C.3       1 <0>        -0.1745
     13 S1          2.1242    6.0918    0.0134 S.3       1 <0>         0.1370
     14 C11         3.7683    6.7255    0.0012 C.2       1 <0>         0.1261
     15 N1          4.8729    6.0173   -0.0070 N.2       1 <0>        -0.2832
     16 N2          5.8887    6.8067   -0.0170 N.2       1 <0>        -0.2526
     17 C12         5.4731    8.0523   -0.0073 C.2       1 <0>         0.2590
     18 O3          4.1212    8.0260    0.0044 O.3       1 <0>        -0.1972
     19 C13         6.3210    9.2536   -0.0088 C.2       1 <0>        -0.1281
     20 C14         7.7003    9.3469   -0.0148 C.2       1 <0>        -0.0749
     21 C15         8.2716   10.5992   -0.0197 C.2       1 <0>        -0.1671
     22 C16         7.4700   11.6952   -0.0068 C.2       1 <0>        -0.1455
     23 S2          5.8380   10.9724    0.0044 S.3       1 <0>         0.1184
     24 H1          1.7753   -4.5001    0.8503 H         1 <0>         0.0682
     25 H2          1.7577   -4.4906   -0.9295 H         1 <0>         0.0682
     26 H3          3.2965   -4.6826   -0.0558 H         1 <0>         0.0818
     27 H4          3.0520   -2.3755   -0.9310 H         1 <0>         0.0671
     28 H5          3.0697   -2.3851    0.8488 H         1 <0>         0.0671
     29 H6         -0.9263   -0.5558    0.0079 H         1 <0>         0.1413
     30 H7         -0.9585    1.8952    0.0169 H         1 <0>         0.1446
     31 H8          3.3378    1.9363   -0.0183 H         1 <0>         0.1376
     32 H9          3.3523   -0.5148   -0.0335 H         1 <0>         0.1377
     33 H10         3.0062    4.0749    0.8114 H         1 <0>         0.1217
     34 H11         3.0376    4.0622   -0.8955 H         1 <0>         0.1385
     35 H12         8.3147    8.4587   -0.0187 H         1 <0>         0.1508
     36 H13         9.3459   10.7089   -0.0289 H         1 <0>         0.1493
     37 H14         7.7490   12.7385   -0.0034 H         1 <0>         0.1980
@<TRIPOS>BOND
     1    1    2 1
     2    1   24 1
     3    1   25 1
     4    1   26 1
     5    2    3 1
     6    2   27 1
     7    2   28 1
     8    3    4 1
     9    4    9 ar
    10    4    5 ar
    11    5    6 ar
    12    5   29 1
    13    6    7 ar
    14    6   30 1
    15    7    8 ar
    16    7   10 1
    17    8    9 ar
    18    8   31 1
    19    9   32 1
    20   10   11 2
    21   10   12 1
    22   12   13 1
    23   12   33 1
    24   12   34 1
    25   13   14 1
    26   14   18 1
    27   14   15 2
    28   15   16 1
    29   16   17 2
    30   17   18 1
    31   17   19 1
    32   19   23 1
    33   19   20 2
    34   20   21 1
    35   20   35 1
    36   21   22 2
    37   21   36 1
    38   22   23 1
    39   22   37 1
@<TRIPOS>MOLECULE
ZINC11395288
   42    44     0     0     0
SMALL
USER_CHARGES
4-[2-[1-(4-methoxyphenyl)imidazol-2-yl]sulfanylethoxy]benzonitrile
@<TRIPOS>ATOM
      1 C1          3.3580    8.7683   -0.9601 C.3       1 <0>         0.0233
      2 O1          3.6856    7.7686    0.0071 O.3       1 <0>        -0.3117
      3 C2          2.9279    6.6397    0.0089 C.ar      1 <0>         0.1410
      4 C3          3.1918    5.6289    0.9217 C.ar      1 <0>        -0.1354
      5 C4          2.4228    4.4820    0.9235 C.ar      1 <0>        -0.0671
      6 C5          1.3853    4.3408    0.0122 C.ar      1 <0>         0.0688
      7 C6          1.1247    5.3504   -0.9042 C.ar      1 <0>        -0.0666
      8 C7          1.8915    6.4988   -0.9024 C.ar      1 <0>        -0.1904
      9 N1          0.6038    3.1750    0.0134 N.pl3     1 <0>        -0.3935
     10 C8          1.0668    1.8768    0.0020 C.2       1 <0>        -0.0361
     11 C9         -0.0126    1.0758    0.0080 C.2       1 <0>        -0.0117
     12 N2         -1.1129    1.8469    0.0168 N.2       1 <0>        -0.4789
     13 C10        -0.7582    3.1110    0.0260 C.2       1 <0>         0.1908
     14 S1         -1.8552    4.4897    0.0439 S.3       1 <0>         0.0084
     15 C11        -3.4456    3.6258    0.0545 C.3       1 <0>        -0.1107
     16 C12        -4.5822    4.6499    0.0708 C.3       1 <0>         0.0725
     17 O2         -5.8379    3.9678    0.0791 O.3       1 <0>        -0.3012
     18 C13        -6.9568    4.7366    0.0940 C.ar      1 <0>         0.1625
     19 C14        -6.8456    6.1217    0.1060 C.ar      1 <0>        -0.2119
     20 C15        -7.9782    6.9054    0.1153 C.ar      1 <0>        -0.0263
     21 C16        -9.2404    6.3056    0.1237 C.ar      1 <0>        -0.0692
     22 C17        -9.3476    4.9122    0.1173 C.ar      1 <0>        -0.0281
     23 C18        -8.2099    4.1360    0.1027 C.ar      1 <0>        -0.1504
     24 C19       -10.4206    7.1165    0.1384 C.1       1 <0>         0.2546
     25 N3        -11.3569    7.7598    0.1500 N.1       1 <0>        -0.4181
     26 H1          4.0375    9.6138   -0.8531 H         1 <0>         0.1051
     27 H2          3.4538    8.3497   -1.9619 H         1 <0>         0.0590
     28 H3          2.3329    9.1038   -0.8029 H         1 <0>         0.0597
     29 H4          3.9989    5.7389    1.6307 H         1 <0>         0.1440
     30 H5          2.6287    3.6949    1.6337 H         1 <0>         0.1391
     31 H6          0.3205    5.2390   -1.6163 H         1 <0>         0.1374
     32 H7          1.6864    7.2860   -1.6129 H         1 <0>         0.1412
     33 H8          2.1001    1.5630   -0.0091 H         1 <0>         0.1825
     34 H9          0.0021   -0.0041    0.0020 H         1 <0>         0.1796
     35 H10        -3.5282    3.0056   -0.8381 H         1 <0>         0.1096
     36 H11        -3.5112    2.9961    0.9417 H         1 <0>         0.1095
     37 H12        -4.4997    5.2701    0.9634 H         1 <0>         0.0780
     38 H13        -4.5167    5.2796   -0.8165 H         1 <0>         0.0778
     39 H14        -5.8697    6.5843    0.1040 H         1 <0>         0.1392
     40 H15        -7.8909    7.9819    0.1203 H         1 <0>         0.1371
     41 H16       -10.3212    4.4447    0.1241 H         1 <0>         0.1418
     42 H17        -8.2918    3.0592    0.0977 H         1 <0>         0.1444
@<TRIPOS>BOND
     1    1    2 1
     2    1   26 1
     3    1   27 1
     4    1   28 1
     5    2    3 1
     6    3    8 ar
     7    3    4 ar
     8    4    5 ar
     9    4   29 1
    10    5    6 ar
    11    5   30 1
    12    6    7 ar
    13    6    9 1
    14    7    8 ar
    15    7   31 1
    16    8   32 1
    17    9   13 1
    18    9   10 1
    19   10   11 2
    20   10   33 1
    21   11   12 1
    22   11   34 1
    23   12   13 2
    24   13   14 1
    25   14   15 1
    26   15   16 1
    27   15   35 1
    28   15   36 1
    29   16   17 1
    30   16   37 1
    31   16   38 1
    32   17   18 1
    33   18   23 ar
    34   18   19 ar
    35   19   20 ar
    36   19   39 1
    37   20   21 ar
    38   20   40 1
    39   21   22 ar
    40   21   24 1
    41   22   23 ar
    42   22   41 1
    43   23   42 1
    44   24   25 3
@<TRIPOS>MOLECULE
ZINC06689015
   48    50     0     0     0
SMALL
USER_CHARGES

@<TRIPOS>ATOM
      1 C1          1.0073    1.1866    0.4948 C.3       1 <0>        -0.1420
      2 C2          0.7672   -0.2530    0.0356 C.3       1 <0>        -0.1160
      3 C3          1.6525   -1.2014    0.8466 C.3       1 <0>        -0.1313
      4 C4         -0.6807   -0.6130    0.2474 C.2       1 <0>         0.5324
      5 O1         -1.0342   -1.1140    1.2938 O.2       1 <0>        -0.5163
      6 N1         -1.5829   -0.3782   -0.7260 N.am      1 <0>        -0.6104
      7 C5         -3.0095   -0.5900   -0.4691 C.3       1 <0>         0.1975
      8 C6         -3.5365    0.5292    0.3916 C.2       1 <0>        -0.0319
      9 C7         -4.1890    1.6199   -0.0488 C.2       1 <0>        -0.1982
     10 C8         -4.4977    2.3999    1.0893 C.2       1 <0>        -0.2192
     11 C9         -4.0155    1.7391    2.1571 C.2       1 <0>        -0.0318
     12 O2         -3.4394    0.6039    1.7291 O.3       1 <0>        -0.1560
     13 C10        -1.1368    0.0888   -2.0410 C.3       1 <0>         0.1945
     14 C11        -0.8722   -1.0974   -2.9321 C.2       1 <0>         0.1788
     15 N2          0.1297   -1.9258   -2.8181 N.2       1 <0>        -0.4691
     16 C12         0.0454   -2.8569   -3.7799 C.2       1 <0>        -0.0222
     17 C13        -1.0503   -2.5955   -4.5179 C.2       1 <0>        -0.0443
     18 N3         -1.6358   -1.4826   -3.9772 N.pl3     1 <0>        -0.4464
     19 C14        -2.8603   -0.8295   -4.4465 C.3       1 <0>         0.1434
     20 C15        -2.5060    0.2516   -5.4348 C.ar      1 <0>        -0.1060
     21 C16        -2.3111    1.5493   -4.9993 C.ar      1 <0>        -0.0993
     22 C17        -1.9861    2.5414   -5.9051 C.ar      1 <0>        -0.1022
     23 C18        -1.8562    2.2367   -7.2472 C.ar      1 <0>        -0.0985
     24 C19        -2.0510    0.9386   -7.6835 C.ar      1 <0>        -0.0335
     25 C20        -2.3704   -0.0554   -6.7753 C.ar      1 <0>        -0.0878
     26 Cl1        -1.8880    0.5552   -9.3688 Cl        1 <0>        -0.0607
     27 H1          2.0699    1.4185    0.4228 H         1 <0>         0.0711
     28 H2          0.4425    1.8694   -0.1398 H         1 <0>         0.0554
     29 H3          0.6805    1.2974    1.5288 H         1 <0>         0.0614
     30 H4          1.0128   -0.3425   -1.0226 H         1 <0>         0.1045
     31 H5          1.4814   -2.2270    0.5194 H         1 <0>         0.0592
     32 H6          2.6997   -0.9410    0.6934 H         1 <0>         0.0629
     33 H7          1.4068   -1.1119    1.9048 H         1 <0>         0.0629
     34 H8         -3.5506   -0.6064   -1.4152 H         1 <0>         0.1035
     35 H9         -3.1488   -1.5407    0.0456 H         1 <0>         0.0955
     36 H10        -4.4301    1.8551   -1.0749 H         1 <0>         0.1456
     37 H11        -5.0202    3.3450    1.0994 H         1 <0>         0.1485
     38 H12        -4.0836    2.0643    3.1847 H         1 <0>         0.2019
     39 H13        -1.9114    0.7126   -2.4870 H         1 <0>         0.0922
     40 H14        -0.2217    0.6703   -1.9289 H         1 <0>         0.1144
     41 H15         0.7354   -3.6731   -3.9353 H         1 <0>         0.1718
     42 H16        -1.4019   -3.1583   -5.3700 H         1 <0>         0.1754
     43 H17        -3.5030   -1.5661   -4.9286 H         1 <0>         0.1086
     44 H18        -3.3850   -0.3890   -3.5987 H         1 <0>         0.1018
     45 H19        -2.4132    1.7879   -3.9509 H         1 <0>         0.1293
     46 H20        -1.8340    3.5549   -5.5644 H         1 <0>         0.1384
     47 H21        -1.6030    3.0121   -7.9551 H         1 <0>         0.1379
     48 H22        -2.5183   -1.0700   -7.1147 H         1 <0>         0.1344
@<TRIPOS>BOND
     1    1    2 1
     2    1   27 1
     3    1   28 1
     4    1   29 1
     5    2    3 1
     6    2    4 1
     7    2   30 1
     8    3   31 1
     9    3   32 1
    10    3   33 1
    11    4    5 2
    12    4    6 am
    13    6    7 1
    14    6   13 1
    15    7    8 1
    16    7   34 1
    17    7   35 1
    18    8   12 1
    19    8    9 2
    20    9   10 1
    21    9   36 1
    22   10   11 2
    23   10   37 1
    24   11   12 1
    25   11   38 1
    26   13   14 1
    27   13   39 1
    28   13   40 1
    29   14   18 1
    30   14   15 2
    31   15   16 1
    32   16   17 2
    33   16   41 1
    34   17   18 1
    35   17   42 1
    36   18   19 1
    37   19   20 1
    38   19   43 1
    39   19   44 1
    40   20   25 ar
    41   20   21 ar
    42   21   22 ar
    43   21   45 1
    44   22   23 ar
    45   22   46 1
    46   23   24 ar
    47   23   47 1
    48   24   25 ar
    49   24   26 1
    50   25   48 1
@<TRIPOS>MOLECULE
ZINC59822675
   45    47     0     0     0
SMALL
USER_CHARGES

@<TRIPOS>ATOM
      1 C1          1.1419    0.9683   -0.9752 C.2       1 <0>        -0.1539
      2 C2          1.1136   -0.3339   -0.8358 C.2       1 <0>        -0.1886
      3 C3          2.2937   -1.0531   -0.2346 C.3       1 <0>         0.1270
      4 N1          1.8390   -1.8952    0.8746 N.pl3     1 <0>        -0.4510
      5 C4          1.8435   -1.5797    2.2138 C.2       1 <0>         0.2245
      6 N2          1.3525   -2.6145    2.8551 N.2       1 <0>        -0.2600
      7 N3          1.0455   -3.5424    2.0207 N.2       1 <0>        -0.2862
      8 C5          1.3169   -3.1545    0.7944 C.2       1 <0>         0.1670
      9 S1          1.0589   -4.0872   -0.6780 S.3       1 <0>         0.0036
     10 C6          0.3486   -5.6491   -0.0894 C.3       1 <0>        -0.0997
     11 C7          0.0721   -6.5655   -1.2830 C.3       1 <0>         0.0713
     12 N4         -0.5032   -7.8303   -0.8063 N.3       1 <0>        -0.5316
     13 C8          0.4748   -8.5875   -0.0117 C.3       1 <0>         0.0111
     14 C9         -0.1830   -9.8663    0.5136 C.3       1 <0>         0.0631
     15 O1         -0.6878  -10.6243   -0.5891 O.3       1 <0>        -0.3846
     16 C10        -1.6434   -9.9174   -1.3843 C.3       1 <0>         0.0630
     17 C11        -1.0003   -8.6391   -1.9288 C.3       1 <0>         0.0184
     18 C12         2.3132   -0.3142    2.8169 C.ar      1 <0>        -0.0053
     19 C13         2.9277   -0.3208    4.0704 C.ar      1 <0>        -0.0696
     20 C14         3.3639    0.8630    4.6281 C.ar      1 <0>        -0.1013
     21 C15         3.1938    2.0560    3.9482 C.ar      1 <0>        -0.0938
     22 C16         2.5849    2.0702    2.7048 C.ar      1 <0>        -0.0337
     23 C17         2.1494    0.8910    2.1330 C.ar      1 <0>        -0.1100
     24 Cl1         2.3750    3.5721    1.8599 Cl        1 <0>        -0.0591
     25 H1          1.9904    1.5316   -0.6159 H         1 <0>         0.1053
     26 H2          0.3187    1.4781   -1.4536 H         1 <0>         0.1154
     27 H3          0.2447   -0.8921   -1.1516 H         1 <0>         0.1256
     28 H4          2.7649   -1.6765   -0.9946 H         1 <0>         0.1125
     29 H5          3.0142   -0.3235    0.1347 H         1 <0>         0.1073
     30 H6          1.0512   -6.1356    0.5871 H         1 <0>         0.0978
     31 H7         -0.5839   -5.4482    0.4381 H         1 <0>         0.1077
     32 H8         -0.6305   -6.0789   -1.9596 H         1 <0>         0.0895
     33 H9          1.0045   -6.7664   -1.8105 H         1 <0>         0.0491
     34 H10         1.3286   -8.8479   -0.6372 H         1 <0>         0.0471
     35 H11         0.8103   -7.9793    0.8283 H         1 <0>         0.0903
     36 H12         0.5543  -10.4587    1.0554 H         1 <0>         0.1004
     37 H13        -1.0035   -9.6054    1.1819 H         1 <0>         0.0622
     38 H14        -1.9623  -10.5467   -2.2151 H         1 <0>         0.1007
     39 H15        -2.5064   -9.6579   -0.7712 H         1 <0>         0.0619
     40 H16        -1.7417   -8.0686   -2.4883 H         1 <0>         0.0897
     41 H17        -0.1701   -8.9003   -2.5850 H         1 <0>         0.0466
     42 H18         3.0609   -1.2510    4.6027 H         1 <0>         0.1420
     43 H19         3.8390    0.8588    5.5980 H         1 <0>         0.1440
     44 H20         3.5372    2.9800    4.3893 H         1 <0>         0.1411
     45 H21         1.6789    0.9021    1.1609 H         1 <0>         0.1433
@<TRIPOS>BOND
     1    1    2 2
     2    1   25 1
     3    1   26 1
     4    2    3 1
     5    2   27 1
     6    3    4 1
     7    3   28 1
     8    3   29 1
     9    4    8 1
    10    4    5 1
    11    5    6 2
    12    5   18 1
    13    6    7 1
    14    7    8 2
    15    8    9 1
    16    9   10 1
    17   10   11 1
    18   10   30 1
    19   10   31 1
    20   11   12 1
    21   11   32 1
    22   11   33 1
    23   12   17 1
    24   12   13 1
    25   13   14 1
    26   13   34 1
    27   13   35 1
    28   14   15 1
    29   14   36 1
    30   14   37 1
    31   15   16 1
    32   16   17 1
    33   16   38 1
    34   16   39 1
    35   17   40 1
    36   17   41 1
    37   18   23 ar
    38   18   19 ar
    39   19   20 ar
    40   19   42 1
    41   20   21 ar
    42   20   43 1
    43   21   22 ar
    44   21   44 1
    45   22   23 ar
    46   22   24 1
    47   23   45 1
@<TRIPOS>MOLECULE
ZINC65999935
   42    43     0     0     0
SMALL
USER_CHARGES

@<TRIPOS>ATOM
      1 C1         -0.0187    1.5258    0.0104 C.3       1 <0>        -0.1668
      2 C2          0.0021   -0.0041    0.0020 C.3       1 <0>         0.1227
      3 N1          0.6878   -0.4765   -1.2033 N.pl3     1 <0>        -0.3574
      4 C3          1.7348   -1.3175   -1.2321 C.2       1 <0>         0.1282
      5 C4          2.0768   -1.5060   -2.5565 C.2       1 <0>        -0.3180
      6 C5          1.1823   -0.7351   -3.3320 C.2       1 <0>         0.0910
      7 N2          0.3588   -0.1326   -2.5192 N.2       1 <0>        -0.2939
      8 C6          3.1720   -2.3538   -3.0664 C.2       1 <0>         0.4597
      9 O1          3.8766   -2.9715   -2.2885 O.2       1 <0>        -0.4748
     10 C7          3.4110   -2.4520   -4.5051 C.2       1 <0>        -0.2096
     11 C8          4.4139   -3.2283   -4.9720 C.2       1 <0>        -0.0254
     12 C9          4.6542   -3.3270   -6.4182 C.ar      1 <0>        -0.0351
     13 C10         5.6891   -4.1353   -6.9045 C.ar      1 <0>        -0.1624
     14 C11         5.9103   -4.2241   -8.2643 C.ar      1 <0>         0.1179
     15 C12         5.1043   -3.5103   -9.1507 C.ar      1 <0>         0.1046
     16 C13         4.0774   -2.7077   -8.6699 C.ar      1 <0>        -0.0791
     17 C14         3.8456   -2.6180   -7.3140 C.ar      1 <0>        -0.0976
     18 Br1         2.9900   -1.7421   -9.8786 Br        1 <0>        -0.0196
     19 O2          5.3242   -3.5996  -10.4881 O.3       1 <0>        -0.3147
     20 C15         4.6275   -4.6293  -11.1928 C.3       1 <0>         0.0619
     21 C16         4.9993   -4.5737  -12.6759 C.3       1 <0>        -0.1496
     22 O3          6.9149   -5.0079   -8.7397 O.3       1 <0>        -0.3005
     23 C17         7.7013   -5.7105   -7.7754 C.3       1 <0>         0.0212
     24 H1          1.0039    1.9031    0.0027 H         1 <0>         0.0620
     25 H2         -0.5459    1.8868   -0.8726 H         1 <0>         0.0729
     26 H3         -0.5289    1.8773    0.9072 H         1 <0>         0.0794
     27 H4          0.5293   -0.3651    0.8851 H         1 <0>         0.1011
     28 H5         -1.0205   -0.3814    0.0098 H         1 <0>         0.0918
     29 H6          2.2201   -1.7639   -0.3767 H         1 <0>         0.1872
     30 H7          1.1782   -0.6612   -4.4095 H         1 <0>         0.1921
     31 H8          2.7862   -1.9042   -5.1950 H         1 <0>         0.1342
     32 H9          5.0387   -3.7761   -4.2822 H         1 <0>         0.1399
     33 H10         6.3131   -4.6875   -6.2174 H         1 <0>         0.1458
     34 H11         3.0434   -1.9974   -6.9429 H         1 <0>         0.1458
     35 H12         4.9056   -5.6010  -10.7846 H         1 <0>         0.0551
     36 H13         3.5532   -4.4826  -11.0818 H         1 <0>         0.0555
     37 H14         4.4680   -5.3591  -13.2133 H         1 <0>         0.0764
     38 H15         4.7213   -3.6020  -13.0840 H         1 <0>         0.0666
     39 H16         6.0737   -4.7205  -12.7868 H         1 <0>         0.0662
     40 H17         8.4651   -6.2963   -8.2867 H         1 <0>         0.1062
     41 H18         8.1795   -4.9954   -7.1059 H         1 <0>         0.0600
     42 H19         7.0592   -6.3756   -7.1979 H         1 <0>         0.0589
@<TRIPOS>BOND
     1    1    2 1
     2    1   24 1
     3    1   25 1
     4    1   26 1
     5    2    3 1
     6    2   27 1
     7    2   28 1
     8    3    7 1
     9    3    4 1
    10    4    5 2
    11    4   29 1
    12    5    6 1
    13    5    8 1
    14    6    7 2
    15    6   30 1
    16    8    9 2
    17    8   10 1
    18   10   11 2
    19   10   31 1
    20   11   12 1
    21   11   32 1
    22   12   17 ar
    23   12   13 ar
    24   13   14 ar
    25   13   33 1
    26   14   15 ar
    27   14   22 1
    28   15   16 ar
    29   15   19 1
    30   16   17 ar
    31   16   18 1
    32   17   34 1
    33   19   20 1
    34   20   21 1
    35   20   35 1
    36   20   36 1
    37   21   37 1
    38   21   38 1
    39   21   39 1
    40   22   23 1
    41   23   40 1
    42   23   41 1
    43   23   42 1
@<TRIPOS>MOLECULE
ZINC05411298
   45    47     0     0     0
SMALL
USER_CHARGES
4-[(4-benzyloxyphenyl)methyleneamino]-5-propyl-1,2,4-triazole-3-thiol
@<TRIPOS>ATOM
      1 C1          0.2547    3.1811   -4.4769 C.3       1 <0>        -0.1507
      2 C2          0.6410    3.3958   -3.0121 C.3       1 <0>        -0.1182
      3 C3          1.5084    2.2285   -2.5370 C.3       1 <0>        -0.0334
      4 C4          1.8889    2.4400   -1.0943 C.2       1 <0>         0.2078
      5 N1          2.9464    3.0650   -0.6575 N.2       1 <0>        -0.2803
      6 N2          2.9639    3.0612    0.6274 N.2       1 <0>        -0.2282
      7 C5          1.9061    2.4331    1.0875 C.2       1 <0>         0.1428
      8 N3          1.1881    2.0105    0.0015 N.pl3     1 <0>        -0.3300
      9 N4         -0.0155    1.2936    0.0092 N.2       1 <0>        -0.2629
     10 C6          0.0021   -0.0041    0.0020 C.2       1 <0>         0.2112
     11 C7         -1.2643   -0.7584    0.0101 C.ar      1 <0>        -0.1308
     12 C8         -2.4850   -0.0783    0.0311 C.ar      1 <0>        -0.0137
     13 C9         -3.6663   -0.7875    0.0332 C.ar      1 <0>        -0.2206
     14 C10        -3.6451   -2.1765    0.0251 C.ar      1 <0>         0.1699
     15 C11        -2.4339   -2.8567    0.0099 C.ar      1 <0>        -0.1595
     16 C12        -1.2478   -2.1558    0.0024 C.ar      1 <0>        -0.0293
     17 O1         -4.8119   -2.8715    0.0324 O.3       1 <0>        -0.3023
     18 C13        -6.0208   -2.1096    0.0480 C.3       1 <0>         0.0996
     19 C14        -7.2033   -3.0438    0.0543 C.ar      1 <0>        -0.1022
     20 C15        -7.7606   -3.4614   -1.1399 C.ar      1 <0>        -0.0945
     21 C16        -8.8420   -4.3224   -1.1343 C.ar      1 <0>        -0.1227
     22 C17        -9.3729   -4.7573    0.0657 C.ar      1 <0>        -0.1066
     23 C18        -8.8192   -4.3353    1.2599 C.ar      1 <0>        -0.1226
     24 C19        -7.7343   -3.4787    1.2542 C.ar      1 <0>        -0.0943
     25 S1          1.4922    2.1788    2.7812 S.3       1 <0>         0.0049
     26 H1          1.1568    3.1272   -5.0864 H         1 <0>         0.0593
     27 H2         -0.3045    2.2504   -4.5725 H         1 <0>         0.0552
     28 H3         -0.3632    4.0128   -4.8154 H         1 <0>         0.0612
     29 H4         -0.2611    3.4498   -2.4027 H         1 <0>         0.0661
     30 H5          1.2002    4.3265   -2.9165 H         1 <0>         0.0732
     31 H6          2.4105    2.1746   -3.1465 H         1 <0>         0.1055
     32 H7          0.9492    1.2978   -2.6326 H         1 <0>         0.0799
     33 H8          0.9446   -0.5313   -0.0098 H         1 <0>         0.1253
     34 H9         -2.5024    1.0015    0.0416 H         1 <0>         0.1415
     35 H10        -4.6102   -0.2628    0.0454 H         1 <0>         0.1377
     36 H11        -2.4221   -3.9366    0.0036 H         1 <0>         0.1417
     37 H12        -0.3066   -2.6855   -0.0090 H         1 <0>         0.1393
     38 H13        -6.0457   -1.4860    0.9417 H         1 <0>         0.0766
     39 H14        -6.0626   -1.4764   -0.8382 H         1 <0>         0.0764
     40 H15        -7.3485   -3.1181   -2.0773 H         1 <0>         0.1247
     41 H16        -9.2743   -4.6525   -2.0673 H         1 <0>         0.1268
     42 H17       -10.2201   -5.4271    0.0701 H         1 <0>         0.1258
     43 H18        -9.2341   -4.6750    2.1974 H         1 <0>         0.1268
     44 H19        -7.3017   -3.1489    2.1872 H         1 <0>         0.1248
     45 H20         2.1452    0.9504    3.0110 H         1 <0>         0.0986
@<TRIPOS>BOND
     1    1    2 1
     2    1   26 1
     3    1   27 1
     4    1   28 1
     5    2    3 1
     6    2   29 1
     7    2   30 1
     8    3    4 1
     9    3   31 1
    10    3   32 1
    11    4    8 1
    12    4    5 2
    13    5    6 1
    14    6    7 2
    15    7    8 1
    16    7   25 1
    17    8    9 1
    18    9   10 2
    19   10   11 1
    20   10   33 1
    21   11   16 ar
    22   11   12 ar
    23   12   13 ar
    24   12   34 1
    25   13   14 ar
    26   13   35 1
    27   14   15 ar
    28   14   17 1
    29   15   16 ar
    30   15   36 1
    31   16   37 1
    32   17   18 1
    33   18   19 1
    34   18   38 1
    35   18   39 1
    36   19   24 ar
    37   19   20 ar
    38   20   21 ar
    39   20   40 1
    40   21   22 ar
    41   21   41 1
    42   22   23 ar
    43   22   42 1
    44   23   24 ar
    45   23   43 1
    46   24   44 1
    47   25   45 1
@<TRIPOS>MOLECULE
ZINC23582235
   51    53     0     0     0
SMALL
USER_CHARGES
2-[[4-propyl-5-(4-pyridyl)-1,2,4-triazol-3-yl]sulfanyl]-1-(2,4,6-trimethylphenyl)ethanone
@<TRIPOS>ATOM
      1 C1         -9.8499    6.3664   -0.7038 C.3       1 <0>        -0.1530
      2 C2         -9.1075    5.0298   -0.7610 C.3       1 <0>        -0.1486
      3 C3         -8.5951    4.6708    0.6352 C.3       1 <0>         0.0883
      4 N1         -7.8842    3.3910    0.5804 N.pl3     1 <0>        -0.4493
      5 C4         -8.4120    2.1372    0.7894 C.2       1 <0>         0.2157
      6 N2         -7.4297    1.2773    0.6494 N.2       1 <0>        -0.2537
      7 N3         -6.3406    1.8981    0.3666 N.2       1 <0>        -0.2868
      8 C5         -6.5616    3.1936    0.3087 C.2       1 <0>         0.1535
      9 S1         -5.3699    4.4422   -0.0459 S.3       1 <0>         0.0637
     10 C6         -3.8976    3.4150   -0.2769 C.3       1 <0>        -0.1727
     11 C7         -2.7171    4.2944   -0.5995 C.2       1 <0>         0.4340
     12 O1         -2.8745    5.4860   -0.7591 O.2       1 <0>        -0.4231
     13 C8         -1.3732    3.7069   -0.7206 C.ar      1 <0>        -0.1618
     14 C9         -0.8820    3.3283   -1.9742 C.ar      1 <0>        -0.0378
     15 C10         0.3762    2.7741   -2.0788 C.ar      1 <0>        -0.1275
     16 C11         1.1564    2.6014   -0.9488 C.ar      1 <0>        -0.0559
     17 C12         0.6793    2.9779    0.2947 C.ar      1 <0>        -0.1267
     18 C13        -0.5787    3.5291    0.4165 C.ar      1 <0>        -0.0390
     19 C14        -1.0959    3.9393    1.7712 C.3       1 <0>        -0.1312
     20 C15         2.5326    1.9998   -1.0728 C.3       1 <0>        -0.1226
     21 C16        -1.7277    3.5207   -3.2066 C.3       1 <0>        -0.1309
     22 C17        -9.8176    1.8193    1.1160 C.ar      1 <0>         0.0316
     23 C18       -10.1641    0.5852    1.6799 C.ar      1 <0>        -0.1302
     24 C19       -11.4876    0.3322    1.9727 C.ar      1 <0>         0.1090
     25 N4        -12.4213    1.2298    1.7198 N.ar      1 <0>        -0.4759
     26 C20       -12.1390    2.4028    1.1850 C.ar      1 <0>         0.1089
     27 C21       -10.8412    2.7414    0.8649 C.ar      1 <0>        -0.1766
     28 H1        -10.2183    6.6245   -1.7076 H         1 <0>         0.0698
     29 H2         -9.1648    7.1516   -0.3516 H         1 <0>         0.0643
     30 H3        -10.7004    6.2841   -0.0111 H         1 <0>         0.0617
     31 H4         -9.7926    4.2446   -1.1132 H         1 <0>         0.0760
     32 H5         -8.2570    5.1121   -1.4538 H         1 <0>         0.0809
     33 H6         -7.9100    5.4560    0.9874 H         1 <0>         0.1067
     34 H7         -9.4456    4.5884    1.3280 H         1 <0>         0.1095
     35 H8         -3.6944    2.8526    0.6463 H         1 <0>         0.1355
     36 H9         -4.0677    2.7112   -1.1050 H         1 <0>         0.1376
     37 H10         0.7557    2.4782   -3.0457 H         1 <0>         0.1299
     38 H11         1.2941    2.8400    1.1718 H         1 <0>         0.1300
     39 H12        -0.3346    3.7231    2.5352 H         1 <0>         0.0777
     40 H13        -2.0137    3.3773    1.9988 H         1 <0>         0.0737
     41 H14        -1.3169    5.0169    1.7684 H         1 <0>         0.0758
     42 H15         2.9983    1.9416   -0.0780 H         1 <0>         0.0688
     43 H16         3.1500    2.6293   -1.7305 H         1 <0>         0.0745
     44 H17         2.4539    0.9894   -1.5005 H         1 <0>         0.0749
     45 H18        -1.1753    3.1663   -4.0893 H         1 <0>         0.0772
     46 H19        -1.9640    4.5884   -3.3261 H         1 <0>         0.0768
     47 H20        -2.6611    2.9478   -3.1038 H         1 <0>         0.0730
     48 H21        -9.4058   -0.1558    1.8858 H         1 <0>         0.1496
     49 H22       -11.7644   -0.6152    2.4112 H         1 <0>         0.1667
     50 H23       -12.9354    3.1072    0.9952 H         1 <0>         0.1637
     51 H24       -10.6175    3.7031    0.4275 H         1 <0>         0.1442
@<TRIPOS>BOND
     1    1    2 1
     2    1   28 1
     3    1   29 1
     4    1   30 1
     5    2    3 1
     6    2   31 1
     7    2   32 1
     8    3    4 1
     9    3   33 1
    10    3   34 1
    11    4    8 1
    12    4    5 1
    13    5    6 2
    14    5   22 1
    15    6    7 1
    16    7    8 2
    17    8    9 1
    18    9   10 1
    19   10   11 1
    20   10   35 1
    21   10   36 1
    22   11   12 2
    23   11   13 1
    24   13   18 ar
    25   13   14 ar
    26   14   15 ar
    27   14   21 1
    28   15   16 ar
    29   15   37 1
    30   16   17 ar
    31   16   20 1
    32   17   18 ar
    33   17   38 1
    34   18   19 1
    35   19   39 1
    36   19   40 1
    37   19   41 1
    38   20   42 1
    39   20   43 1
    40   20   44 1
    41   21   45 1
    42   21   46 1
    43   21   47 1
    44   22   27 ar
    45   22   23 ar
    46   23   24 ar
    47   23   48 1
    48   24   25 ar
    49   24   49 1
    50   25   26 ar
    51   26   27 ar
    52   26   50 1
    53   27   51 1
@<TRIPOS>MOLECULE
ZINC06740149
   53    54     0     0     0
SMALL
USER_CHARGES

@<TRIPOS>ATOM
      1 C1         -0.1165    1.4585    0.0314 C.3       1 <0>        -0.1526
      2 C2         -0.0642   -0.0705    0.0133 C.3       1 <0>         0.0608
      3 O1          0.6143   -0.5101   -1.1650 O.3       1 <0>        -0.3574
      4 C3          0.7469   -1.8415   -1.3346 C.2       1 <0>         0.5378
      5 O2          0.2982   -2.6078   -0.5039 O.2       1 <0>        -0.4910
      6 C4          1.4322   -2.3650   -2.5210 C.2       1 <0>        -0.0502
      7 C5          1.6274   -3.6822   -2.8131 C.2       1 <0>        -0.0151
      8 C6          2.3267   -3.7337   -4.0424 C.2       1 <0>        -0.2609
      9 C7          2.5283   -2.4235   -4.4488 C.2       1 <0>         0.1154
     10 N1          1.9836   -1.6088   -3.5336 N.pl3     1 <0>        -0.4046
     11 C8          1.9787   -0.1452   -3.5975 C.3       1 <0>         0.0591
     12 C9          3.2342   -1.9891   -5.7074 C.3       1 <0>        -0.1022
     13 C10         2.7567   -4.9428   -4.7515 C.2       1 <0>         0.4412
     14 O3          3.8090   -5.4734   -4.4629 O.2       1 <0>        -0.4144
     15 C11         1.8917   -5.5267   -5.8386 C.3       1 <0>         0.0171
     16 O4          2.4616   -6.7561   -6.2922 O.3       1 <0>        -0.2975
     17 C12         1.7998   -7.4162   -7.2786 C.ar      1 <0>         0.1230
     18 C13         0.6289   -6.8884   -7.8034 C.ar      1 <0>        -0.2072
     19 C14        -0.0418   -7.5611   -8.8064 C.ar      1 <0>        -0.0775
     20 C15         0.4527   -8.7595   -9.2871 C.ar      1 <0>        -0.1124
     21 C16         1.6191   -9.2878   -8.7654 C.ar      1 <0>        -0.0742
     22 C17         2.2968   -8.6159   -7.7666 C.ar      1 <0>        -0.1448
     23 C18        -0.2813   -9.4914  -10.3810 C.3       1 <0>        -0.0535
     24 C19         0.6340   -9.6405  -11.5979 C.3       1 <0>        -0.1455
     25 C20        -0.6934  -10.8771   -9.8800 C.3       1 <0>        -0.1457
     26 C21         1.1834   -4.8599   -1.9842 C.3       1 <0>        -0.0998
     27 H1          0.8981    1.8568    0.0264 H         1 <0>         0.0667
     28 H2         -0.6508    1.8142   -0.8496 H         1 <0>         0.0664
     29 H3         -0.6340    1.7937    0.9302 H         1 <0>         0.0823
     30 H4          0.4701   -0.4262    0.8943 H         1 <0>         0.0704
     31 H5         -1.0788   -0.4689    0.0183 H         1 <0>         0.0704
     32 H6          2.8720    0.2428   -3.1081 H         1 <0>         0.0840
     33 H7          1.9683    0.1729   -4.6400 H         1 <0>         0.0913
     34 H8          1.0921    0.2376   -3.0919 H         1 <0>         0.1053
     35 H9          2.5113   -1.9045   -6.5187 H         1 <0>         0.0882
     36 H10         3.7097   -1.0224   -5.5421 H         1 <0>         0.0799
     37 H11         3.9923   -2.7264   -5.9716 H         1 <0>         0.0892
     38 H12         0.8917   -5.7125   -5.4468 H         1 <0>         0.0985
     39 H13         1.8313   -4.8253   -6.6709 H         1 <0>         0.0978
     40 H14         0.2420   -5.9527   -7.4278 H         1 <0>         0.1272
     41 H15        -0.9533   -7.1507   -9.2152 H         1 <0>         0.1242
     42 H16         2.0031  -10.2242   -9.1423 H         1 <0>         0.1289
     43 H17         3.2103   -9.0268   -7.3625 H         1 <0>         0.1319
     44 H18        -1.1707   -8.9274  -10.6622 H         1 <0>         0.0761
     45 H19         0.9275   -8.6533  -11.9549 H         1 <0>         0.0555
     46 H20         1.5233  -10.2045  -11.3168 H         1 <0>         0.0568
     47 H21         0.1031  -10.1699  -12.3892 H         1 <0>         0.0579
     48 H22        -1.3454  -10.7709   -9.0130 H         1 <0>         0.0557
     49 H23        -1.2242  -11.4065  -10.6712 H         1 <0>         0.0579
     50 H24         0.1960  -11.4411   -9.5988 H         1 <0>         0.0568
     51 H25         0.1477   -5.1021   -2.2225 H         1 <0>         0.0780
     52 H26         1.8173   -5.7188   -2.2043 H         1 <0>         0.0683
     53 H27         1.2640   -4.6105   -0.9262 H         1 <0>         0.0863
@<TRIPOS>BOND
     1    1    2 1
     2    1   27 1
     3    1   28 1
     4    1   29 1
     5    2    3 1
     6    2   30 1
     7    2   31 1
     8    3    4 1
     9    4    5 2
    10    4    6 1
    11    6   10 1
    12    6    7 2
    13    7    8 1
    14    7   26 1
    15    8    9 2
    16    8   13 1
    17    9   10 1
    18    9   12 1
    19   10   11 1
    20   11   32 1
    21   11   33 1
    22   11   34 1
    23   12   35 1
    24   12   36 1
    25   12   37 1
    26   13   14 2
    27   13   15 1
    28   15   16 1
    29   15   38 1
    30   15   39 1
    31   16   17 1
    32   17   22 ar
    33   17   18 ar
    34   18   19 ar
    35   18   40 1
    36   19   20 ar
    37   19   41 1
    38   20   21 ar
    39   20   23 1
    40   21   22 ar
    41   21   42 1
    42   22   43 1
    43   23   24 1
    44   23   25 1
    45   23   44 1
    46   24   45 1
    47   24   46 1
    48   24   47 1
    49   25   48 1
    50   25   49 1
    51   25   50 1
    52   26   51 1
    53   26   52 1
    54   26   53 1
@<TRIPOS>MOLECULE
ZINC59109340
   42    44     0     0     0
SMALL
USER_CHARGES

@<TRIPOS>ATOM
      1 C1          1.6693    1.8180    2.1226 C.3       1 <0>        -0.1530
      2 C2          1.5392    0.3536    1.6987 C.3       1 <0>         0.0615
      3 O1          1.6757   -0.4882    2.8453 O.3       1 <0>        -0.3490
      4 C3          1.5857   -1.8122    2.6434 C.2       1 <0>         0.4629
      5 O2          1.3972   -2.2421    1.5301 O.2       1 <0>        -0.4798
      6 C4          1.7196   -2.7624    3.8054 C.3       1 <0>         0.0695
      7 O3          1.5885   -4.1067    3.3390 O.3       1 <0>        -0.2921
      8 C5          1.6852   -5.0926    4.2661 C.ar      1 <0>         0.1655
      9 C6          1.8960   -4.7771    5.5988 C.ar      1 <0>        -0.2196
     10 C7          1.9949   -5.7817    6.5421 C.ar      1 <0>        -0.0506
     11 C8          1.8845   -7.1114    6.1669 C.ar      1 <0>        -0.1590
     12 C9          1.6749   -7.4468    4.8478 C.ar      1 <0>         0.0016
     13 C10         1.5662   -6.4391    3.8806 C.ar      1 <0>        -0.1129
     14 C11         1.3370   -6.7867    2.4754 C.2       1 <0>         0.0771
     15 C12         2.0461   -7.8008    1.8987 C.2       1 <0>        -0.0195
     16 C13         1.6541   -8.3114    0.6196 C.1       1 <0>         0.2505
     17 N1          1.3431   -8.7165   -0.3952 N.1       1 <0>        -0.3878
     18 C14         3.2153   -8.3703    2.5928 C.2       1 <0>         0.2021
     19 N2          3.8023   -7.9578    3.6972 N.2       1 <0>        -0.4770
     20 C15         4.8738   -8.5818    4.2235 C.ar      1 <0>         0.0799
     21 C16         5.5941   -8.2449    5.3947 C.ar      1 <0>        -0.0547
     22 C17         6.6633   -8.9848    5.7922 C.ar      1 <0>        -0.1127
     23 C18         7.0911  -10.0925    5.0735 C.ar      1 <0>        -0.0900
     24 C19         6.4154  -10.4562    3.9232 C.ar      1 <0>        -0.0689
     25 C20         5.3342   -9.7158    3.5128 C.ar      1 <0>        -0.1388
     26 S1          4.1927   -9.8010    2.1542 S.3       1 <0>         0.0021
     27 H1          2.6467    1.9791    2.5774 H         1 <0>         0.0682
     28 H2          1.5652    2.4601    1.2480 H         1 <0>         0.0830
     29 H3          0.8887    2.0579    2.8446 H         1 <0>         0.0683
     30 H4          0.5618    0.1925    1.2439 H         1 <0>         0.0714
     31 H5          2.3198    0.1137    0.9767 H         1 <0>         0.0712
     32 H6          2.6971   -2.6327    4.2699 H         1 <0>         0.1105
     33 H7          0.9391   -2.5539    4.5371 H         1 <0>         0.1113
     34 H8          1.9837   -3.7438    5.9006 H         1 <0>         0.1324
     35 H9          2.1596   -5.5291    7.5791 H         1 <0>         0.1281
     36 H10         1.9637   -7.8884    6.9128 H         1 <0>         0.1258
     37 H11         1.5903   -8.4844    4.5602 H         1 <0>         0.1240
     38 H12         0.6072   -6.2407    1.8961 H         1 <0>         0.1568
     39 H13         5.2906   -7.3892    5.9796 H         1 <0>         0.1330
     40 H14         7.1934   -8.7032    6.6900 H         1 <0>         0.1347
     41 H15         7.9435  -10.6644    5.4091 H         1 <0>         0.1397
     42 H16         6.7356  -11.3152    3.3522 H         1 <0>         0.1344
@<TRIPOS>BOND
     1    1    2 1
     2    1   27 1
     3    1   28 1
     4    1   29 1
     5    2    3 1
     6    2   30 1
     7    2   31 1
     8    3    4 1
     9    4    5 2
    10    4    6 1
    11    6    7 1
    12    6   32 1
    13    6   33 1
    14    7    8 1
    15    8   13 ar
    16    8    9 ar
    17    9   10 ar
    18    9   34 1
    19   10   11 ar
    20   10   35 1
    21   11   12 ar
    22   11   36 1
    23   12   13 ar
    24   12   37 1
    25   13   14 1
    26   14   15 2
    27   14   38 1
    28   15   16 1
    29   15   18 1
    30   16   17 3
    31   18   26 1
    32   18   19 2
    33   19   20 1
    34   20   25 ar
    35   20   21 ar
    36   21   22 ar
    37   21   39 1
    38   22   23 ar
    39   22   40 1
    40   23   24 ar
    41   23   41 1
    42   24   25 ar
    43   24   42 1
    44   25   26 1
@<TRIPOS>MOLECULE
ZINC64946066
   49    51     0     0     0
SMALL
USER_CHARGES

@<TRIPOS>ATOM
      1 C1          0.6637    1.7073    1.6278 C.3       1 <0>        -0.1524
      2 C2          0.5720    0.1898    1.4558 C.3       1 <0>         0.0614
      3 O1          1.1878   -0.4543    2.5730 O.3       1 <0>        -0.3456
      4 C3          1.1921   -1.7966    2.5762 C.2       1 <0>         0.4374
      5 O2          0.6897   -2.4046    1.6608 O.2       1 <0>        -0.4862
      6 C4          1.8236   -2.5453    3.7215 C.3       1 <0>         0.1051
      7 N1          1.6992   -3.9866    3.4904 N.am      1 <0>        -0.5890
      8 C5          2.8021   -4.7274    2.8730 C.3       1 <0>         0.1529
      9 C6          3.6819   -5.3373    3.9661 C.3       1 <0>        -0.1712
     10 C7          5.1295   -4.8512    4.0610 C.3       1 <0>        -0.1808
     11 C8          4.8264   -6.2513    3.5238 C.3       1 <0>        -0.1692
     12 C9          0.5702   -4.6312    3.8458 C.2       1 <0>         0.6180
     13 O3          0.5016   -5.8411    3.7403 O.2       1 <0>        -0.5012
     14 C10        -0.5783   -3.8721    4.3608 C.2       1 <0>        -0.2231
     15 C11        -1.7444   -4.3453    4.8744 C.2       1 <0>         0.0059
     16 C12        -2.7295   -3.4465    5.3181 C.ar      1 <0>        -0.1651
     17 C13        -4.0011   -3.7356    5.8793 C.ar      1 <0>         0.0250
     18 C14        -4.8141   -2.7042    6.2471 C.ar      1 <0>        -0.1869
     19 C15        -4.4083   -1.3882    6.0770 C.ar      1 <0>         0.1831
     20 N2         -3.2276   -1.1154    5.5559 N.ar      1 <0>        -0.4568
     21 C16        -2.4083   -2.0733    5.1858 C.ar      1 <0>         0.1032
     22 S1         -0.7813   -2.1030    4.4727 S.3       1 <0>         0.1047
     23 C17        -5.3225   -0.2635    6.4898 C.3       1 <0>        -0.1076
     24 C18        -4.4467   -5.1631    6.0658 C.3       1 <0>        -0.1309
     25 C19        -1.9806   -5.8308    4.9675 C.3       1 <0>        -0.1425
     26 H1          1.7110    2.0037    1.6862 H         1 <0>         0.0675
     27 H2          0.1940    2.1986    0.7757 H         1 <0>         0.0802
     28 H3          0.1515    2.0007    2.5441 H         1 <0>         0.0685
     29 H4         -0.4753   -0.1066    1.3975 H         1 <0>         0.0688
     30 H5          1.0842   -0.1037    0.5395 H         1 <0>         0.0680
     31 H6          2.8780   -2.2784    3.7927 H         1 <0>         0.1407
     32 H7          1.3185   -2.2814    4.6506 H         1 <0>         0.1270
     33 H8          2.3994   -5.5221    2.2451 H         1 <0>         0.0947
     34 H9          3.3986   -4.0492    2.2627 H         1 <0>         0.0849
     35 H10         3.1715   -5.5844    4.8970 H         1 <0>         0.1094
     36 H11         5.4551   -4.0968    3.3448 H         1 <0>         0.0955
     37 H12         5.5717   -4.7782    5.0546 H         1 <0>         0.0956
     38 H13         5.0692   -7.0994    4.1639 H         1 <0>         0.0973
     39 H14         4.9525   -6.4181    2.4540 H         1 <0>         0.0970
     40 H15        -5.7834   -2.9138    6.6747 H         1 <0>         0.1451
     41 H16        -5.1269    0.0009    7.5290 H         1 <0>         0.0877
     42 H17        -5.1419    0.6034    5.8542 H         1 <0>         0.0834
     43 H18        -6.3598   -0.5813    6.3847 H         1 <0>         0.0833
     44 H19        -3.7185   -5.6939    6.6790 H         1 <0>         0.0861
     45 H20        -5.4182   -5.1789    6.5598 H         1 <0>         0.0761
     46 H21        -4.5258   -5.6490    5.0933 H         1 <0>         0.0890
     47 H22        -1.7257   -6.1771    5.9691 H         1 <0>         0.0811
     48 H23        -3.0299   -6.0452    4.7650 H         1 <0>         0.0824
     49 H24        -1.3570   -6.3444    4.2358 H         1 <0>         0.1028
@<TRIPOS>BOND
     1    1    2 1
     2    1   26 1
     3    1   27 1
     4    1   28 1
     5    2    3 1
     6    2   29 1
     7    2   30 1
     8    3    4 1
     9    4    5 2
    10    4    6 1
    11    6    7 1
    12    6   31 1
    13    6   32 1
    14    7    8 1
    15    7   12 am
    16    8    9 1
    17    8   33 1
    18    8   34 1
    19    9   11 1
    20    9   10 1
    21    9   35 1
    22   10   11 1
    23   10   36 1
    24   10   37 1
    25   11   38 1
    26   11   39 1
    27   12   13 2
    28   12   14 1
    29   14   22 1
    30   14   15 2
    31   15   16 1
    32   15   25 1
    33   16   21 ar
    34   16   17 ar
    35   17   18 ar
    36   17   24 1
    37   18   19 ar
    38   18   40 1
    39   19   20 ar
    40   19   23 1
    41   20   21 ar
    42   21   22 1
    43   23   41 1
    44   23   42 1
    45   23   43 1
    46   24   44 1
    47   24   45 1
    48   24   46 1
    49   25   47 1
    50   25   48 1
    51   25   49 1
@<TRIPOS>MOLECULE
ZINC16458926
   75    77     0     0     0
SMALL
USER_CHARGES
N-butyl-N-[2-[[1-[(2-chlorophenyl)methyl]pyrrol-2-yl]methyl-isobutyl-amino]-2-oxo-ethyl]-3-methoxy-benzamide
@<TRIPOS>ATOM
      1 C1         -2.4244    3.3494    4.2465 C.3       1 <0>        -0.1513
      2 C2         -1.8969    3.7845    2.8778 C.3       1 <0>        -0.1266
      3 C3         -0.6177    4.6037    3.0611 C.3       1 <0>        -0.1460
      4 C4         -0.1579    5.1418    1.7047 C.3       1 <0>         0.0751
      5 N1          1.1366    5.8103    1.8579 N.am      1 <0>        -0.5880
      6 C5          1.1964    7.1836    2.3645 C.3       1 <0>         0.0969
      7 C6          1.2358    8.1454    1.2050 C.2       1 <0>         0.5076
      8 O1          1.1231    7.7323    0.0703 O.2       1 <0>        -0.5172
      9 N2          1.3964    9.4647    1.4290 N.am      1 <0>        -0.6005
     10 C7          1.6481    9.9517    2.7875 C.3       1 <0>         0.1846
     11 C8          3.1342   10.0331    3.0246 C.2       1 <0>        -0.0182
     12 C9          4.0806   10.1632    2.0729 C.2       1 <0>        -0.1669
     13 C10         5.3299   10.2023    2.7231 C.2       1 <0>        -0.1979
     14 C11         5.0998   10.0862    4.0468 C.2       1 <0>         0.0036
     15 N3          3.7539    9.9820    4.2380 N.pl3     1 <0>        -0.4337
     16 C12         3.0844    9.8384    5.5331 C.3       1 <0>         0.1415
     17 C13         2.6492   11.1941    6.0267 C.ar      1 <0>        -0.1056
     18 C14         1.3700   11.6475    5.7642 C.ar      1 <0>        -0.0915
     19 C15         0.9708   12.8911    6.2165 C.ar      1 <0>        -0.1133
     20 C16         1.8504   13.6821    6.9323 C.ar      1 <0>        -0.0971
     21 C17         3.1294   13.2297    7.1957 C.ar      1 <0>        -0.1095
     22 C18         3.5280   11.9828    6.7473 C.ar      1 <0>        -0.0158
     23 Cl1         5.1321   11.4109    7.0839 Cl        1 <0>        -0.0612
     24 C19         1.3191   10.4118    0.3139 C.3       1 <0>         0.1157
     25 C20        -0.0939   10.9935    0.2359 C.3       1 <0>        -0.1091
     26 C21        -0.1401   12.0781   -0.8423 C.3       1 <0>        -0.1460
     27 C22        -1.0844    9.8818   -0.1162 C.3       1 <0>        -0.1392
     28 C23         2.2726    5.1619    1.5328 C.2       1 <0>         0.5689
     29 O2          3.3513    5.6704    1.7680 O.2       1 <0>        -0.5210
     30 C24         2.2067    3.8319    0.8902 C.ar      1 <0>        -0.0894
     31 C25         3.2113    3.4294    0.0084 C.ar      1 <0>        -0.0968
     32 C26         3.1469    2.1875   -0.5891 C.ar      1 <0>        -0.0843
     33 C27         2.0893    1.3389   -0.3179 C.ar      1 <0>        -0.1851
     34 C28         1.0827    1.7327    0.5531 C.ar      1 <0>         0.1199
     35 C29         1.1406    2.9747    1.1632 C.ar      1 <0>        -0.1537
     36 O3          0.0427    0.8968    0.8116 O.3       1 <0>        -0.3147
     37 C30         0.0500   -0.3710    0.1524 C.3       1 <0>         0.0256
     38 H1         -3.3357    2.7658    4.1159 H         1 <0>         0.0566
     39 H2         -1.6724    2.7413    4.7492 H         1 <0>         0.0547
     40 H3         -2.6410    4.2312    4.8495 H         1 <0>         0.0531
     41 H4         -2.6489    4.3927    2.3751 H         1 <0>         0.0660
     42 H5         -1.6803    2.9027    2.2748 H         1 <0>         0.0709
     43 H6          0.1620    3.9702    3.4840 H         1 <0>         0.0719
     44 H7         -0.8138    5.4375    3.7352 H         1 <0>         0.0705
     45 H8         -0.8923    5.8539    1.3284 H         1 <0>         0.0792
     46 H9         -0.0591    4.3155    1.0006 H         1 <0>         0.1160
     47 H10         0.3153    7.3848    2.9737 H         1 <0>         0.1071
     48 H11         2.0936    7.3085    2.9708 H         1 <0>         0.1116
     49 H12         1.2065   10.9411    2.9065 H         1 <0>         0.0928
     50 H13         1.2023    9.2659    3.5078 H         1 <0>         0.0789
     51 H14         3.9118   10.2279    1.0081 H         1 <0>         0.1297
     52 H15         6.2948   10.3024    2.2483 H         1 <0>         0.1339
     53 H16         5.8520   10.0767    4.8217 H         1 <0>         0.1578
     54 H17         2.2116    9.1950    5.4215 H         1 <0>         0.0975
     55 H18         3.7737    9.3943    6.2512 H         1 <0>         0.1050
     56 H19         0.6823   11.0300    5.2054 H         1 <0>         0.1306
     57 H20        -0.0286   13.2451    6.0109 H         1 <0>         0.1329
     58 H21         1.5378   14.6534    7.2860 H         1 <0>         0.1352
     59 H22         3.8163   13.8475    7.7552 H         1 <0>         0.1366
     60 H23         2.0357   11.2178    0.4715 H         1 <0>         0.0787
     61 H24         1.5515    9.8959   -0.6177 H         1 <0>         0.0899
     62 H25        -0.3619   11.4273    1.1993 H         1 <0>         0.0690
     63 H26         0.1280   11.6443   -1.8057 H         1 <0>         0.0575
     64 H27        -1.1467   12.4925   -0.8979 H         1 <0>         0.0581
     65 H28         0.5656   12.8700   -0.5915 H         1 <0>         0.0562
     66 H29        -0.8578    9.4945   -1.1096 H         1 <0>         0.0578
     67 H30        -1.0026    9.0774    0.6147 H         1 <0>         0.0482
     68 H31        -2.0984   10.2816   -0.1046 H         1 <0>         0.0505
     69 H32         4.0384    4.0899   -0.2061 H         1 <0>         0.1348
     70 H33         3.9248    1.8773   -1.2711 H         1 <0>         0.1340
     71 H34         2.0439    0.3681   -0.7889 H         1 <0>         0.1331
     72 H35         0.3606    3.2803    1.8447 H         1 <0>         0.1672
     73 H36         0.0425   -0.2194   -0.9270 H         1 <0>         0.0571
     74 H37         0.9465   -0.9226    0.4356 H         1 <0>         0.0569
     75 H38        -0.8334   -0.9382    0.4457 H         1 <0>         0.1027
@<TRIPOS>BOND
     1    1    2 1
     2    1   38 1
     3    1   39 1
     4    1   40 1
     5    2    3 1
     6    2   41 1
     7    2   42 1
     8    3    4 1
     9    3   43 1
    10    3   44 1
    11    4    5 1
    12    4   45 1
    13    4   46 1
    14    5    6 1
    15    5   28 am
    16    6    7 1
    17    6   47 1
    18    6   48 1
    19    7    8 2
    20    7    9 am
    21    9   10 1
    22    9   24 1
    23   10   11 1
    24   10   49 1
    25   10   50 1
    26   11   15 1
    27   11   12 2
    28   12   13 1
    29   12   51 1
    30   13   14 2
    31   13   52 1
    32   14   15 1
    33   14   53 1
    34   15   16 1
    35   16   17 1
    36   16   54 1
    37   16   55 1
    38   17   22 ar
    39   17   18 ar
    40   18   19 ar
    41   18   56 1
    42   19   20 ar
    43   19   57 1
    44   20   21 ar
    45   20   58 1
    46   21   22 ar
    47   21   59 1
    48   22   23 1
    49   24   25 1
    50   24   60 1
    51   24   61 1
    52   25   26 1
    53   25   27 1
    54   25   62 1
    55   26   63 1
    56   26   64 1
    57   26   65 1
    58   27   66 1
    59   27   67 1
    60   27   68 1
    61   28   29 2
    62   28   30 1
    63   30   35 ar
    64   30   31 ar
    65   31   32 ar
    66   31   69 1
    67   32   33 ar
    68   32   70 1
    69   33   34 ar
    70   33   71 1
    71   34   35 ar
    72   34   36 1
    73   35   72 1
    74   36   37 1
    75   37   73 1
    76   37   74 1
    77   37   75 1
@<TRIPOS>MOLECULE
ZINC27022649
   62    65     0     0     0
SMALL
USER_CHARGES
(5Z)-2-(4-butoxyphenyl)-5-[(2-pentoxyphenyl)methylene]thiazolo[2,3-e][1,2,4]triazol-6-one
@<TRIPOS>ATOM
      1 C1         -2.8111   -1.1645   -2.9633 C.3       1 <0>        -0.1561
      2 C2         -1.7843   -1.2813   -1.8350 C.3       1 <0>        -0.1254
      3 C3         -2.1737   -0.3418   -0.6919 C.3       1 <0>        -0.1179
      4 C4         -1.1469   -0.4586    0.4364 C.3       1 <0>        -0.1226
      5 C5         -1.5362    0.4809    1.5795 C.3       1 <0>         0.0545
      6 O1         -0.5773    0.3718    2.6333 O.3       1 <0>        -0.3074
      7 C6         -0.7771    1.1450    3.7306 C.ar      1 <0>         0.1800
      8 C7         -1.8685    1.9962    3.7932 C.ar      1 <0>        -0.2131
      9 C8         -2.0740    2.7791    4.9129 C.ar      1 <0>        -0.0435
     10 C9         -1.1872    2.7298    5.9767 C.ar      1 <0>        -0.1523
     11 C10        -0.0932    1.8941    5.9321 C.ar      1 <0>        -0.0506
     12 C11         0.1250    1.0905    4.8063 C.ar      1 <0>        -0.1363
     13 C12         1.2881    0.1979    4.7503 C.2       1 <0>         0.1156
     14 C13         1.9486   -0.1300    5.8918 C.2       1 <0>        -0.2484
     15 C14         3.2124   -0.8600    6.0636 C.2       1 <0>         0.5694
     16 O2          3.8363   -1.2728    5.1036 O.2       1 <0>        -0.4380
     17 N1          3.6567   -1.0519    7.3133 N.am      1 <0>        -0.4181
     18 C15         2.9167   -0.5745    8.3578 C.2       1 <0>         0.2606
     19 S1          1.5125    0.2023    7.5926 S.3       1 <0>         0.1651
     20 N2          3.5075   -0.8632    9.4832 N.2       1 <0>        -0.4618
     21 C16         4.6422   -1.5317    9.2285 C.2       1 <0>         0.3105
     22 N3          4.7772   -1.6709    7.9326 N.2       1 <0>        -0.2620
     23 C17         5.5927   -2.0333   10.2508 C.ar      1 <0>        -0.0704
     24 C18         6.7400   -2.7216    9.8596 C.ar      1 <0>        -0.0316
     25 C19         7.6247   -3.1816   10.8121 C.ar      1 <0>        -0.2144
     26 C20         7.3680   -2.9696   12.1601 C.ar      1 <0>         0.1584
     27 C21         6.2229   -2.2897   12.5530 C.ar      1 <0>        -0.1571
     28 C22         5.3374   -1.8223   11.6049 C.ar      1 <0>        -0.0256
     29 O3          8.2388   -3.4286   13.0964 O.3       1 <0>        -0.3101
     30 C23         9.3964   -4.1194   12.6225 C.3       1 <0>         0.0534
     31 C24        10.2518   -4.5576   13.8129 C.3       1 <0>        -0.1211
     32 C25        11.4913   -5.2973   13.3055 C.3       1 <0>        -0.1228
     33 C26        12.3467   -5.7355   14.4959 C.3       1 <0>        -0.1544
     34 H1         -2.5312   -1.8399   -3.7851 H         1 <0>         0.0563
     35 H2         -2.8345   -0.1284   -3.3320 H         1 <0>         0.0548
     36 H3         -3.8058   -1.4412   -2.5839 H         1 <0>         0.0548
     37 H4         -1.7609   -2.3174   -1.4663 H         1 <0>         0.0641
     38 H5         -0.7895   -1.0046   -2.2144 H         1 <0>         0.0642
     39 H6         -2.1971    0.6943   -1.0607 H         1 <0>         0.0665
     40 H7         -3.1685   -0.6185   -0.3126 H         1 <0>         0.0664
     41 H8         -1.1236   -1.4947    0.8051 H         1 <0>         0.0771
     42 H9         -0.1521   -0.1820    0.0570 H         1 <0>         0.0772
     43 H10        -1.5595    1.5170    1.2108 H         1 <0>         0.0693
     44 H11        -2.5310    0.2043    1.9589 H         1 <0>         0.0693
     45 H12        -2.5624    2.0445    2.9670 H         1 <0>         0.1387
     46 H13        -2.9288    3.4376    4.9575 H         1 <0>         0.1360
     47 H14        -1.3550    3.3494    6.8453 H         1 <0>         0.1379
     48 H15         0.5952    1.8590    6.7635 H         1 <0>         0.1392
     49 H16         1.6255   -0.2059    3.7843 H         1 <0>         0.1736
     50 H17         6.9382   -2.8904    8.8115 H         1 <0>         0.1363
     51 H18         8.5162   -3.7108   10.5095 H         1 <0>         0.1367
     52 H19         6.0256   -2.1266   13.6022 H         1 <0>         0.1416
     53 H20         4.4472   -1.2929   11.9111 H         1 <0>         0.1464
     54 H21         9.0856   -5.0049   12.0486 H         1 <0>         0.0662
     55 H22         9.9833   -3.4507   11.9757 H         1 <0>         0.0663
     56 H23        10.5626   -3.6721   14.3868 H         1 <0>         0.0757
     57 H24         9.6649   -5.2263   14.4597 H         1 <0>         0.0757
     58 H25        11.1805   -6.1828   12.7316 H         1 <0>         0.0657
     59 H26        12.0782   -4.6286   12.6587 H         1 <0>         0.0657
     60 H27        13.2378   -6.2673   14.1310 H         1 <0>         0.0582
     61 H28        11.7598   -6.4042   15.1427 H         1 <0>         0.0568
     62 H29        12.6575   -4.8500   15.0698 H         1 <0>         0.0568
@<TRIPOS>BOND
     1    1    2 1
     2    1   34 1
     3    1   35 1
     4    1   36 1
     5    2    3 1
     6    2   37 1
     7    2   38 1
     8    3    4 1
     9    3   39 1
    10    3   40 1
    11    4    5 1
    12    4   41 1
    13    4   42 1
    14    5    6 1
    15    5   43 1
    16    5   44 1
    17    6    7 1
    18    7   12 ar
    19    7    8 ar
    20    8    9 ar
    21    8   45 1
    22    9   10 ar
    23    9   46 1
    24   10   11 ar
    25   10   47 1
    26   11   12 ar
    27   11   48 1
    28   12   13 1
    29   13   14 2
    30   13   49 1
    31   14   19 1
    32   14   15 1
    33   15   16 2
    34   15   17 am
    35   17   22 1
    36   17   18 1
    37   18   19 1
    38   18   20 2
    39   20   21 1
    40   21   22 2
    41   21   23 1
    42   23   28 ar
    43   23   24 ar
    44   24   25 ar
    45   24   50 1
    46   25   26 ar
    47   25   51 1
    48   26   27 ar
    49   26   29 1
    50   27   28 ar
    51   27   52 1
    52   28   53 1
    53   29   30 1
    54   30   31 1
    55   30   54 1
    56   30   55 1
    57   31   32 1
    58   31   56 1
    59   31   57 1
    60   32   33 1
    61   32   58 1
    62   32   59 1
    63   33   60 1
    64   33   61 1
    65   33   62 1
@<TRIPOS>MOLECULE
ZINC35067017
   70    72     0     0     0
SMALL
USER_CHARGES

@<TRIPOS>ATOM
      1 C1         -2.2317    0.6628   -1.7111 C.3       1 <0>        -0.1545
      2 C2         -1.8345   -0.7855   -1.4188 C.3       1 <0>        -0.1255
      3 C3         -0.9284   -1.3017   -2.5384 C.3       1 <0>        -0.1187
      4 C4         -0.5313   -2.7501   -2.2461 C.3       1 <0>        -0.1181
      5 C5          0.3748   -3.2663   -3.3657 C.3       1 <0>        -0.1449
      6 C6          0.7720   -4.7147   -3.0735 C.3       1 <0>         0.1035
      7 N1          1.6395   -5.2090   -4.1455 N.am      1 <0>        -0.6072
      8 C7          3.0922   -5.0483   -4.0450 C.3       1 <0>         0.2010
      9 H1          3.3381   -4.5429   -3.1110 H         1 <0>         0.1086
     10 C8          3.5958   -4.2137   -5.2243 C.3       1 <0>        -0.1243
     11 C9          3.0385   -2.7928   -5.1184 C.3       1 <0>        -0.1563
     12 C10         3.7506   -6.4036   -4.0713 C.2       1 <0>         0.3805
     13 N2          4.3547   -6.7742   -5.1592 N.2       1 <0>        -0.4645
     14 C11         4.9695   -7.9794   -5.2560 C.ar      1 <0>         0.1519
     15 C12         5.6198   -8.3782   -6.4257 C.ar      1 <0>        -0.1014
     16 C13         6.2312   -9.6104   -6.4798 C.ar      1 <0>        -0.0733
     17 C14         6.2095  -10.4643   -5.3846 C.ar      1 <0>        -0.1349
     18 C15         5.5742  -10.0938   -4.2198 C.ar      1 <0>        -0.0430
     19 C16         4.9499   -8.8502   -4.1438 C.ar      1 <0>        -0.1950
     20 C17         4.2577   -8.4011   -2.9272 C.2       1 <0>         0.5496
     21 O1          4.2042   -9.1034   -1.9344 O.2       1 <0>        -0.4990
     22 N3          3.6864   -7.1743   -2.9522 N.am      1 <0>        -0.4976
     23 C18         3.0183   -6.6962   -1.8170 C.ar      1 <0>         0.1013
     24 C19         1.8112   -7.2632   -1.4305 C.ar      1 <0>        -0.0618
     25 C20         1.1545   -6.7909   -0.3112 C.ar      1 <0>        -0.1409
     26 C21         1.6991   -5.7525    0.4256 C.ar      1 <0>         0.1160
     27 C22         2.9027   -5.1853    0.0415 C.ar      1 <0>        -0.1403
     28 C23         3.5653   -5.6586   -1.0739 C.ar      1 <0>        -0.0855
     29 F1          1.0552   -5.2918    1.5203 F         1 <0>        -0.1297
     30 C24         1.1012   -5.8115   -5.2242 C.2       1 <0>         0.5099
     31 O2          1.8194   -6.2207   -6.1117 O.2       1 <0>        -0.4993
     32 C25        -0.3931   -5.9768   -5.3276 C.3       1 <0>        -0.1355
     33 C26        -0.7383   -6.6861   -6.6386 C.3       1 <0>        -0.0792
     34 C27        -0.1745   -8.1083   -6.6128 C.3       1 <0>        -0.1519
     35 C28        -2.2584   -6.7430   -6.8028 C.3       1 <0>        -0.1484
     36 H2         -1.3356    1.2810   -1.7675 H         1 <0>         0.0534
     37 H3         -2.7651    0.7088   -2.6605 H         1 <0>         0.0533
     38 H4         -2.8771    1.0306   -0.9135 H         1 <0>         0.0536
     39 H5         -1.3010   -0.8315   -0.4694 H         1 <0>         0.0608
     40 H6         -2.7305   -1.4037   -1.3624 H         1 <0>         0.0606
     41 H7         -1.4619   -1.2558   -3.4878 H         1 <0>         0.0616
     42 H8         -0.0324   -0.6836   -2.5948 H         1 <0>         0.0617
     43 H9          0.0022   -2.7960   -1.2967 H         1 <0>         0.0634
     44 H10        -1.4273   -3.3682   -2.1897 H         1 <0>         0.0636
     45 H11        -0.1587   -3.2204   -4.3152 H         1 <0>         0.0685
     46 H12         1.2708   -2.6482   -3.4221 H         1 <0>         0.0769
     47 H13         1.3054   -4.7606   -2.1240 H         1 <0>         0.0789
     48 H14        -0.1241   -5.3328   -3.0171 H         1 <0>         0.0830
     49 H15         4.6851   -4.1790   -5.2060 H         1 <0>         0.0760
     50 H16         3.2623   -4.6661   -6.1582 H         1 <0>         0.1031
     51 H17         3.3972   -2.1982   -5.9586 H         1 <0>         0.0596
     52 H18         1.9492   -2.8274   -5.1367 H         1 <0>         0.0616
     53 H19         3.3719   -2.3403   -4.1845 H         1 <0>         0.0508
     54 H20         5.6427   -7.7230   -7.2840 H         1 <0>         0.1415
     55 H21         6.7337   -9.9171   -7.3853 H         1 <0>         0.1359
     56 H22         6.6947  -11.4272   -5.4468 H         1 <0>         0.1347
     57 H23         5.5600  -10.7623   -3.3717 H         1 <0>         0.1374
     58 H24         1.3860   -8.0729   -2.0050 H         1 <0>         0.1344
     59 H25         0.2154   -7.2315   -0.0104 H         1 <0>         0.1473
     60 H26         3.3255   -4.3751    0.6170 H         1 <0>         0.1488
     61 H27         4.5061   -5.2190   -1.3706 H         1 <0>         0.1403
     62 H28        -0.7519   -6.5714   -4.4874 H         1 <0>         0.0892
     63 H29        -0.8693   -4.9965   -5.3086 H         1 <0>         0.0941
     64 H30        -0.3028   -6.1378   -7.4739 H         1 <0>         0.0787
     65 H31        -0.4204   -8.6136   -7.5468 H         1 <0>         0.0528
     66 H32         0.9084   -8.0678   -6.4958 H         1 <0>         0.0715
     67 H33        -0.6100   -8.6566   -5.7774 H         1 <0>         0.0442
     68 H34        -2.6600   -5.7298   -6.8212 H         1 <0>         0.0547
     69 H35        -2.5042   -7.2483   -7.7368 H         1 <0>         0.0586
     70 H36        -2.6938   -7.2913   -5.9675 H         1 <0>         0.0538
@<TRIPOS>BOND
     1    1    2 1
     2    1   36 1
     3    1   37 1
     4    1   38 1
     5    2    3 1
     6    2   39 1
     7    2   40 1
     8    3    4 1
     9    3   41 1
    10    3   42 1
    11    4    5 1
    12    4   43 1
    13    4   44 1
    14    5    6 1
    15    5   45 1
    16    5   46 1
    17    6    7 1
    18    6   47 1
    19    6   48 1
    20    7    8 1
    21    7   30 am
    22    8    9 1
    23    8   10 1
    24    8   12 1
    25   10   11 1
    26   10   49 1
    27   10   50 1
    28   11   51 1
    29   11   52 1
    30   11   53 1
    31   12   22 1
    32   12   13 2
    33   13   14 1
    34   14   19 ar
    35   14   15 ar
    36   15   16 ar
    37   15   54 1
    38   16   17 ar
    39   16   55 1
    40   17   18 ar
    41   17   56 1
    42   18   19 ar
    43   18   57 1
    44   19   20 1
    45   20   21 2
    46   20   22 am
    47   22   23 1
    48   23   28 ar
    49   23   24 ar
    50   24   25 ar
    51   24   58 1
    52   25   26 ar
    53   25   59 1
    54   26   27 ar
    55   26   29 1
    56   27   28 ar
    57   27   60 1
    58   28   61 1
    59   30   31 2
    60   30   32 1
    61   32   33 1
    62   32   62 1
    63   32   63 1
    64   33   34 1
    65   33   35 1
    66   33   64 1
    67   34   65 1
    68   34   66 1
    69   34   67 1
    70   35   68 1
    71   35   69 1
    72   35   70 1
@<TRIPOS>MOLECULE
ZINC35753323
   70    71     0     0     0
SMALL
USER_CHARGES

@<TRIPOS>ATOM
      1 C1          0.8440    0.9993    0.0820 C.3       1 <0>        -0.1533
      2 C2          0.6576   -0.5189    0.1179 C.3       1 <0>        -0.1248
      3 C3         -0.8359   -0.8501    0.0910 C.3       1 <0>        -0.1049
      4 C4         -1.0224   -2.3683    0.1270 C.3       1 <0>        -0.1391
      5 C5         -2.4934   -2.6945    0.1005 C.2       1 <0>         0.5220
      6 O1         -3.3121   -1.8008    0.0572 O.2       1 <0>        -0.5355
      7 N1         -2.8992   -3.9795    0.1250 N.am      1 <0>        -0.5940
      8 C6         -4.3292   -4.2966    0.0993 C.3       1 <0>         0.0970
      9 C7         -4.8161   -4.3060   -1.3269 C.2       1 <0>         0.5038
     10 O2         -4.0298   -4.1508   -2.2371 O.2       1 <0>        -0.5137
     11 N2         -6.1254   -4.4868   -1.5908 N.am      1 <0>        -0.6046
     12 C8         -7.0583   -4.7830   -0.5007 C.3       1 <0>         0.1093
     13 C9         -7.6152   -3.4745    0.0637 C.3       1 <0>        -0.1418
     14 C10        -8.5895   -3.7840    1.2021 C.3       1 <0>        -0.1213
     15 C11        -9.1464   -2.4755    1.7666 C.3       1 <0>        -0.1536
     16 C12        -6.6157   -4.3870   -2.9677 C.3       1 <0>         0.1896
     17 C13        -6.6749   -5.7624   -3.5807 C.2       1 <0>        -0.0011
     18 C14        -5.9220   -6.8216   -3.2204 C.2       1 <0>        -0.1713
     19 C15        -6.2948   -7.9032   -4.0427 C.2       1 <0>        -0.1983
     20 C16        -7.2613   -7.4638   -4.8741 C.2       1 <0>        -0.0088
     21 N3         -7.5029   -6.1521   -4.5913 N.pl3     1 <0>        -0.4384
     22 C17        -8.4869   -5.3010   -5.2648 C.3       1 <0>         0.1439
     23 C18        -7.8208   -4.5617   -6.3965 C.ar      1 <0>        -0.1001
     24 C19        -7.1624   -3.3711   -6.1515 C.ar      1 <0>        -0.0934
     25 C20        -6.5510   -2.6930   -7.1891 C.ar      1 <0>        -0.0882
     26 C21        -6.5979   -3.2058   -8.4729 C.ar      1 <0>        -0.0812
     27 C22        -7.2568   -4.3972   -8.7177 C.ar      1 <0>        -0.0904
     28 C23        -7.8635   -5.0773   -7.6785 C.ar      1 <0>        -0.0928
     29 Br1        -5.7621   -2.2782   -9.8930 Br        1 <0>        -0.0441
     30 C24        -1.9103   -5.0591    0.1773 C.3       1 <0>         0.1283
     31 C25        -2.1966   -5.9549    1.3842 C.3       1 <0>        -0.1661
     32 C26        -1.9933   -5.8893   -1.1052 C.3       1 <0>        -0.1569
     33 H1          1.9080    1.2352    0.1011 H         1 <0>         0.0544
     34 H2          0.3996    1.3984   -0.8298 H         1 <0>         0.0545
     35 H3          0.3572    1.4457    0.9490 H         1 <0>         0.0544
     36 H4          1.1444   -0.9654   -0.7492 H         1 <0>         0.0618
     37 H5          1.1019   -0.9181    1.0297 H         1 <0>         0.0616
     38 H6         -1.3227   -0.4037    0.9581 H         1 <0>         0.0689
     39 H7         -1.2803   -0.4510   -0.8207 H         1 <0>         0.0692
     40 H8         -0.5355   -2.8147   -0.7401 H         1 <0>         0.0945
     41 H9         -0.5780   -2.7674    1.0387 H         1 <0>         0.0929
     42 H10        -4.4919   -5.2779    0.5452 H         1 <0>         0.1076
     43 H11        -4.8784   -3.5446    0.6658 H         1 <0>         0.1097
     44 H12        -7.8780   -5.3933   -0.8798 H         1 <0>         0.0829
     45 H13        -6.5358   -5.3254    0.2873 H         1 <0>         0.0789
     46 H14        -6.7955   -2.8643    0.4428 H         1 <0>         0.0694
     47 H15        -8.1377   -2.9322   -0.7243 H         1 <0>         0.0665
     48 H16        -9.4092   -4.3942    0.8231 H         1 <0>         0.0633
     49 H17        -8.0670   -4.3263    1.9902 H         1 <0>         0.0640
     50 H18        -9.6689   -1.9331    0.9786 H         1 <0>         0.0536
     51 H19        -9.8405   -2.6959    2.5776 H         1 <0>         0.0556
     52 H20        -8.3266   -1.8652    2.1457 H         1 <0>         0.0552
     53 H21        -7.6125   -3.9462   -2.9674 H         1 <0>         0.0769
     54 H22        -5.9408   -3.7588   -3.5491 H         1 <0>         0.0967
     55 H23        -5.1710   -6.8377   -2.4444 H         1 <0>         0.1247
     56 H24        -5.8821   -8.9008   -4.0128 H         1 <0>         0.1335
     57 H25        -7.7607   -8.0508   -5.6307 H         1 <0>         0.1598
     58 H26        -9.2929   -5.9197   -5.6595 H         1 <0>         0.1029
     59 H27        -8.8949   -4.5837   -4.5526 H         1 <0>         0.0976
     60 H28        -7.1262   -2.9706   -5.1491 H         1 <0>         0.1293
     61 H29        -6.0369   -1.7627   -6.9976 H         1 <0>         0.1361
     62 H30        -7.2937   -4.7980   -9.7199 H         1 <0>         0.1362
     63 H31        -8.3744   -6.0096   -7.8688 H         1 <0>         0.1328
     64 H32        -0.9115   -4.6327    0.2701 H         1 <0>         0.0973
     65 H33        -3.1552   -6.4550    1.2462 H         1 <0>         0.0590
     66 H34        -1.4077   -6.7012    1.4780 H         1 <0>         0.0732
     67 H35        -2.2308   -5.3467    2.2881 H         1 <0>         0.0625
     68 H36        -1.7080   -5.2718   -1.9569 H         1 <0>         0.0668
     69 H37        -1.3170   -6.7409   -1.0311 H         1 <0>         0.0641
     70 H38        -3.0140   -6.2467   -1.2412 H         1 <0>         0.0554
@<TRIPOS>BOND
     1    1    2 1
     2    1   33 1
     3    1   34 1
     4    1   35 1
     5    2    3 1
     6    2   36 1
     7    2   37 1
     8    3    4 1
     9    3   38 1
    10    3   39 1
    11    4    5 1
    12    4   40 1
    13    4   41 1
    14    5    6 2
    15    5    7 am
    16    7    8 1
    17    7   30 1
    18    8    9 1
    19    8   42 1
    20    8   43 1
    21    9   10 2
    22    9   11 am
    23   11   12 1
    24   11   16 1
    25   12   13 1
    26   12   44 1
    27   12   45 1
    28   13   14 1
    29   13   46 1
    30   13   47 1
    31   14   15 1
    32   14   48 1
    33   14   49 1
    34   15   50 1
    35   15   51 1
    36   15   52 1
    37   16   17 1
    38   16   53 1
    39   16   54 1
    40   17   21 1
    41   17   18 2
    42   18   19 1
    43   18   55 1
    44   19   20 2
    45   19   56 1
    46   20   21 1
    47   20   57 1
    48   21   22 1
    49   22   23 1
    50   22   58 1
    51   22   59 1
    52   23   28 ar
    53   23   24 ar
    54   24   25 ar
    55   24   60 1
    56   25   26 ar
    57   25   61 1
    58   26   27 ar
    59   26   29 1
    60   27   28 ar
    61   27   62 1
    62   28   63 1
    63   30   31 1
    64   30   32 1
    65   30   64 1
    66   31   65 1
    67   31   66 1
    68   31   67 1
    69   32   68 1
    70   32   69 1
    71   32   70 1
@<TRIPOS>MOLECULE
ZINC40042984
   67    70     0     0     0
SMALL
USER_CHARGES

@<TRIPOS>ATOM
      1 C1         -0.0187    1.5258    0.0104 C.3       1 <0>        -0.1547
      2 C2          0.0021   -0.0041    0.0020 C.3       1 <0>        -0.1258
      3 C3          0.7421   -0.5109    1.2415 C.3       1 <0>        -0.1199
      4 C4          0.7628   -2.0407    1.2331 C.3       1 <0>        -0.1174
      5 C5          1.5028   -2.5476    2.4727 C.3       1 <0>        -0.1196
      6 C6          1.5236   -4.0774    2.4642 C.3       1 <0>         0.0582
      7 O1          2.2147   -4.5508    3.6219 O.3       1 <0>        -0.3140
      8 C7          2.3235   -5.8975    3.7679 C.ar      1 <0>         0.1428
      9 C8          1.7812   -6.7459    2.8135 C.ar      1 <0>        -0.2068
     10 C9          1.8935   -8.1145    2.9639 C.ar      1 <0>        -0.0439
     11 C10         2.5453   -8.6391    4.0647 C.ar      1 <0>        -0.1388
     12 C11         3.0862   -7.7957    5.0176 C.ar      1 <0>        -0.0580
     13 C12         2.9819   -6.4262    4.8686 C.ar      1 <0>        -0.1518
     14 C13         2.6659  -10.1325    4.2265 C.3       1 <0>         0.2355
     15 H1          1.9231  -10.6383    3.6097 H         1 <0>         0.1150
     16 C14         4.0397  -10.5820    3.8512 C.2       1 <0>        -0.2513
     17 C15         4.7717  -10.4962    2.5830 C.2       1 <0>         0.4558
     18 O2          4.3804   -9.8467    1.6294 O.2       1 <0>        -0.4335
     19 C16         6.0354  -11.2757    2.5723 C.ar      1 <0>        -0.2088
     20 C17         6.7429  -11.4582    1.3844 C.ar      1 <0>        -0.0312
     21 C18         7.9021  -12.1828    1.3902 C.ar      1 <0>        -0.1051
     22 C19         8.3744  -12.7359    2.5724 C.ar      1 <0>        -0.0520
     23 C20         7.6899  -12.5640    3.7544 C.ar      1 <0>        -0.1313
     24 C21         6.5059  -11.8268    3.7754 C.ar      1 <0>         0.1373
     25 O3          5.8548  -11.6624    4.9494 O.3       1 <0>        -0.1816
     26 C22         4.6057  -11.1566    4.9535 C.2       1 <0>         0.0918
     27 C23         3.6292  -11.1030    6.0555 C.2       1 <0>         0.5738
     28 O4          3.8194  -11.5338    7.1755 O.2       1 <0>        -0.4718
     29 N1          2.4917  -10.5058    5.6398 N.am      1 <0>        -0.5917
     30 C24         1.2951  -10.2698    6.4513 C.3       1 <0>         0.1430
     31 C25         0.3523  -11.4687    6.3305 C.3       1 <0>         0.0375
     32 O5          0.9737  -12.6226    6.9000 O.3       1 <0>        -0.3791
     33 C26         0.1726  -13.8043    6.8384 C.3       1 <0>         0.0316
     34 C27         8.6696  -12.3821    0.1087 C.3       1 <0>        -0.0846
     35 C28         9.6802  -11.2462   -0.0625 C.3       1 <0>        -0.1502
     36 H2          1.0039    1.9031    0.0027 H         1 <0>         0.0540
     37 H3         -0.5459    1.8868   -0.8726 H         1 <0>         0.0542
     38 H4         -0.5289    1.8773    0.9072 H         1 <0>         0.0539
     39 H5         -1.0205   -0.3814    0.0098 H         1 <0>         0.0612
     40 H6          0.5123   -0.3556   -0.8948 H         1 <0>         0.0613
     41 H7          1.7647   -0.1336    1.2338 H         1 <0>         0.0637
     42 H8          0.2319   -0.1594    2.1383 H         1 <0>         0.0637
     43 H9         -0.2598   -2.4180    1.2409 H         1 <0>         0.0654
     44 H10         1.2730   -2.3923    0.3363 H         1 <0>         0.0656
     45 H11         2.5254   -2.1703    2.4649 H         1 <0>         0.0744
     46 H12         0.9926   -2.1961    3.3695 H         1 <0>         0.0744
     47 H13         0.5010   -4.4547    2.4720 H         1 <0>         0.0633
     48 H14         2.0337   -4.4289    1.5675 H         1 <0>         0.0635
     49 H15         1.2714   -6.3367    1.9538 H         1 <0>         0.1311
     50 H16         1.4716   -8.7754    2.2211 H         1 <0>         0.1289
     51 H17         3.5945   -8.2078    5.8767 H         1 <0>         0.1240
     52 H18         3.4084   -5.7678    5.6109 H         1 <0>         0.1330
     53 H19         6.3763  -11.0291    0.4636 H         1 <0>         0.1435
     54 H20         9.2903  -13.3080    2.5649 H         1 <0>         0.1428
     55 H21         8.0698  -13.0007    4.6662 H         1 <0>         0.1481
     56 H22         1.5835  -10.1380    7.4942 H         1 <0>         0.1019
     57 H23         0.7880   -9.3718    6.0983 H         1 <0>         0.1078
     58 H24        -0.5756  -11.2563    6.8616 H         1 <0>         0.0677
     59 H25         0.1345  -11.6552    5.2789 H         1 <0>         0.0542
     60 H26        -0.0490  -14.0392    5.7973 H         1 <0>         0.0394
     61 H27         0.7146  -14.6348    7.2908 H         1 <0>         0.0869
     62 H28        -0.7590  -13.6404    7.3801 H         1 <0>         0.0423
     63 H29         9.1971  -13.3353    0.1456 H         1 <0>         0.0775
     64 H30         7.9773  -12.3824   -0.7332 H         1 <0>         0.0766
     65 H31        10.2353  -11.3904   -0.9894 H         1 <0>         0.0619
     66 H32         9.1527  -10.2931   -0.0993 H         1 <0>         0.0570
     67 H33        10.3726  -11.2460    0.7794 H         1 <0>         0.0573
@<TRIPOS>BOND
     1    1    2 1
     2    1   36 1
     3    1   37 1
     4    1   38 1
     5    2    3 1
     6    2   39 1
     7    2   40 1
     8    3    4 1
     9    3   41 1
    10    3   42 1
    11    4    5 1
    12    4   43 1
    13    4   44 1
    14    5    6 1
    15    5   45 1
    16    5   46 1
    17    6    7 1
    18    6   47 1
    19    6   48 1
    20    7    8 1
    21    8   13 ar
    22    8    9 ar
    23    9   10 ar
    24    9   49 1
    25   10   11 ar
    26   10   50 1
    27   11   12 ar
    28   11   14 1
    29   12   13 ar
    30   12   51 1
    31   13   52 1
    32   14   15 1
    33   14   29 1
    34   14   16 1
    35   16   26 2
    36   16   17 1
    37   17   18 2
    38   17   19 1
    39   19   24 ar
    40   19   20 ar
    41   20   21 ar
    42   20   53 1
    43   21   22 ar
    44   21   34 1
    45   22   23 ar
    46   22   54 1
    47   23   24 ar
    48   23   55 1
    49   24   25 1
    50   25   26 1
    51   26   27 1
    52   27   28 2
    53   27   29 am
    54   29   30 1
    55   30   31 1
    56   30   56 1
    57   30   57 1
    58   31   32 1
    59   31   58 1
    60   31   59 1
    61   32   33 1
    62   33   60 1
    63   33   61 1
    64   33   62 1
    65   34   35 1
    66   34   63 1
    67   34   64 1
    68   35   65 1
    69   35   66 1
    70   35   67 1
@<TRIPOS>MOLECULE
ZINC06598114
   57    58     0     0     0
SMALL
USER_CHARGES
N,N-diisobutyl-2-[[5-(3-methoxyphenyl)-4-methyl-1,2,4-triazol-3-yl]sulfanyl]acetamide
@<TRIPOS>ATOM
      1 C1          0.9740   14.1241    1.9551 C.3       1 <0>        -0.1518
      2 C2          0.1226   14.2313    0.6884 C.3       1 <0>        -0.1127
      3 C3         -0.1123   15.7059    0.3551 C.3       1 <0>        -0.1454
      4 C4          0.8515   13.5553   -0.4747 C.3       1 <0>         0.1211
      5 N1          0.9707   12.1197   -0.2081 N.am      1 <0>        -0.5997
      6 C5          2.1409   11.6018    0.5050 C.3       1 <0>         0.0982
      7 C6          3.2948   11.4089   -0.4809 C.3       1 <0>        -0.1128
      8 C7          4.5555   10.9996    0.2833 C.3       1 <0>        -0.1479
      9 C8          2.9296   10.3143   -1.4857 C.3       1 <0>        -0.1600
     10 C9          0.0037   11.2755   -0.6189 C.2       1 <0>         0.5363
     11 O1         -1.0068   11.7124   -1.1278 O.2       1 <0>        -0.5227
     12 C10         0.1781    9.7887   -0.4460 C.3       1 <0>        -0.1668
     13 S1         -1.2503    8.9278   -1.1493 S.3       1 <0>         0.0811
     14 C11        -0.7946    7.2582   -0.8186 C.2       1 <0>         0.1452
     15 N2          0.3031    6.8536   -0.2193 N.2       1 <0>        -0.2899
     16 N3          0.3137    5.5712   -0.1367 N.2       1 <0>        -0.2606
     17 C12        -0.7713    5.0778   -0.6865 C.2       1 <0>         0.2240
     18 N4         -1.5163    6.1433   -1.1367 N.pl3     1 <0>        -0.4561
     19 C13        -2.8134    6.0925   -1.8159 C.3       1 <0>         0.0598
     20 C14        -1.1285    3.6473   -0.7957 C.ar      1 <0>         0.0226
     21 C15        -2.4556    3.2711   -1.0112 C.ar      1 <0>        -0.1526
     22 C16        -2.7846    1.9355   -1.1183 C.ar      1 <0>        -0.0735
     23 C17        -1.8052    0.9663   -1.0010 C.ar      1 <0>        -0.1946
     24 C18        -0.4830    1.3308   -0.7862 C.ar      1 <0>         0.1335
     25 C19        -0.1409    2.6688   -0.6833 C.ar      1 <0>        -0.1078
     26 O2          0.4762    0.3742   -0.6773 O.3       1 <0>        -0.3127
     27 C20         0.0526   -0.9855   -0.7939 C.3       1 <0>         0.0255
     28 H1          1.1414   13.0735    2.1926 H         1 <0>         0.0573
     29 H2          1.9325   14.6167    1.7915 H         1 <0>         0.0555
     30 H3          0.4548   14.6056    2.7837 H         1 <0>         0.0559
     31 H4         -0.8358   13.7386    0.8521 H         1 <0>         0.0754
     32 H5         -0.7188   15.7823   -0.5473 H         1 <0>         0.0574
     33 H6         -0.6316   16.1874    1.1837 H         1 <0>         0.0584
     34 H7          0.8461   16.1986    0.1915 H         1 <0>         0.0559
     35 H8          1.8459   13.9888   -0.5814 H         1 <0>         0.0806
     36 H9          0.2877   13.7085   -1.3949 H         1 <0>         0.0854
     37 H10         2.4382   12.3103    1.2782 H         1 <0>         0.0913
     38 H11         1.8922   10.6453    0.9649 H         1 <0>         0.0850
     39 H12         3.4789   12.3428   -1.0120 H         1 <0>         0.0762
     40 H13         4.3714   10.0657    0.8143 H         1 <0>         0.0599
     41 H14         5.3776   10.8622   -0.4192 H         1 <0>         0.0605
     42 H15         4.8157   11.7794    0.9990 H         1 <0>         0.0575
     43 H16         2.7330    9.3836   -0.9535 H         1 <0>         0.0652
     44 H17         2.0388   10.6116   -2.0390 H         1 <0>         0.0547
     45 H18         3.7568   10.1680   -2.1802 H         1 <0>         0.0622
     46 H19         0.2578    9.5532    0.6153 H         1 <0>         0.1255
     47 H20         1.0847    9.4671   -0.9586 H         1 <0>         0.1436
     48 H21        -3.6128    6.1569   -1.0777 H         1 <0>         0.0916
     49 H22        -2.8925    6.9283   -2.5110 H         1 <0>         0.0977
     50 H23        -2.8999    5.1544   -2.3642 H         1 <0>         0.1045
     51 H24        -3.2236    4.0254   -1.0989 H         1 <0>         0.1307
     52 H25        -3.8107    1.6459   -1.2902 H         1 <0>         0.1341
     53 H26        -2.0692   -0.0779   -1.0812 H         1 <0>         0.1344
     54 H27         0.8874    2.9538   -0.5170 H         1 <0>         0.1452
     55 H28        -0.4063   -1.1407   -1.7703 H         1 <0>         0.0575
     56 H29         0.9141   -1.6448   -0.6884 H         1 <0>         0.1036
     57 H30        -0.6733   -1.2083   -0.0118 H         1 <0>         0.0578
@<TRIPOS>BOND
     1    1    2 1
     2    1   28 1
     3    1   29 1
     4    1   30 1
     5    2    3 1
     6    2    4 1
     7    2   31 1
     8    3   32 1
     9    3   33 1
    10    3   34 1
    11    4    5 1
    12    4   35 1
    13    4   36 1
    14    5    6 1
    15    5   10 am
    16    6    7 1
    17    6   37 1
    18    6   38 1
    19    7    8 1
    20    7    9 1
    21    7   39 1
    22    8   40 1
    23    8   41 1
    24    8   42 1
    25    9   43 1
    26    9   44 1
    27    9   45 1
    28   10   11 2
    29   10   12 1
    30   12   13 1
    31   12   46 1
    32   12   47 1
    33   13   14 1
    34   14   18 1
    35   14   15 2
    36   15   16 1
    37   16   17 2
    38   17   18 1
    39   17   20 1
    40   18   19 1
    41   19   48 1
    42   19   49 1
    43   19   50 1
    44   20   25 ar
    45   20   21 ar
    46   21   22 ar
    47   21   51 1
    48   22   23 ar
    49   22   52 1
    50   23   24 ar
    51   23   53 1
    52   24   25 ar
    53   24   26 1
    54   25   54 1
    55   26   27 1
    56   27   55 1
    57   27   56 1
    58   27   57 1
@<TRIPOS>MOLECULE
ZINC18325836
   50    52     0     0     0
SMALL
USER_CHARGES
4-(4-ethoxyphenyl)-3-(2-methoxyethylsulfanyl)-5-(3-methoxyphenyl)-1,2,4-triazole
@<TRIPOS>ATOM
      1 C1         -0.8822    7.7119    0.0484 C.3       1 <0>        -0.1537
      2 C2         -1.1071    6.1995    0.1019 C.3       1 <0>         0.0509
      3 O1          0.1374    5.5256   -0.0957 O.3       1 <0>        -0.3080
      4 C3          0.1131    4.1664   -0.0768 C.ar      1 <0>         0.1577
      5 C4          1.2862    3.4492   -0.2621 C.ar      1 <0>        -0.1375
      6 C5          1.2620    2.0688   -0.2431 C.ar      1 <0>        -0.0563
      7 C6          0.0636    1.3986   -0.0389 C.ar      1 <0>         0.0553
      8 C7         -1.1109    2.1165    0.1408 C.ar      1 <0>        -0.0487
      9 C8         -1.0848    3.4970    0.1273 C.ar      1 <0>        -0.1948
     10 N1          0.0384   -0.0042   -0.0199 N.pl3     1 <0>        -0.4071
     11 C9         -0.5491   -0.8393   -0.9447 C.2       1 <0>         0.2349
     12 N2         -0.3327   -2.0707   -0.5436 N.2       1 <0>        -0.2582
     13 N3          0.3320   -2.0645    0.5560 N.2       1 <0>        -0.2799
     14 C10         0.5869   -0.8284    0.9237 C.2       1 <0>         0.1672
     15 S1          1.4711   -0.3270    2.3630 S.3       1 <0>         0.0299
     16 C11         1.8575   -1.9459    3.0743 C.3       1 <0>        -0.1137
     17 C12         2.6471   -1.7577    4.3713 C.3       1 <0>         0.0771
     18 O2          2.9522   -3.0358    4.9329 O.3       1 <0>        -0.3840
     19 C13         3.6923   -2.9726    6.1536 C.3       1 <0>         0.0313
     20 C14        -1.2814   -0.4270   -2.1607 C.ar      1 <0>         0.0175
     21 C15        -2.1278   -1.3290   -2.8085 C.ar      1 <0>        -0.1095
     22 C16        -2.8131   -0.9394   -3.9407 C.ar      1 <0>        -0.0770
     23 C17        -2.6574    0.3397   -4.4426 C.ar      1 <0>        -0.1918
     24 C18        -1.8141    1.2418   -3.8083 C.ar      1 <0>         0.1304
     25 C19        -1.1251    0.8628   -2.6684 C.ar      1 <0>        -0.1368
     26 O3         -1.6642    2.4973   -4.3066 O.3       1 <0>        -0.3146
     27 C20        -2.4051    2.8203   -5.4851 C.3       1 <0>         0.0257
     28 H1         -0.1829    8.0032    0.8321 H         1 <0>         0.0681
     29 H2         -0.4721    7.9841   -0.9242 H         1 <0>         0.0682
     30 H3         -1.8315    8.2259    0.1991 H         1 <0>         0.0811
     31 H4         -1.8064    5.9082   -0.6818 H         1 <0>         0.0663
     32 H5         -1.5173    5.9273    1.0744 H         1 <0>         0.0658
     33 H6          2.2185    3.9708   -0.4210 H         1 <0>         0.1465
     34 H7          2.1752    1.5106   -0.3874 H         1 <0>         0.1405
     35 H8         -2.0442    1.5955    0.2953 H         1 <0>         0.1337
     36 H9         -1.9978    4.0557    0.2712 H         1 <0>         0.1414
     37 H10         0.9313   -2.4798    3.2870 H         1 <0>         0.1080
     38 H11         2.4540   -2.5210    2.3660 H         1 <0>         0.1083
     39 H12         3.5733   -1.2239    4.1586 H         1 <0>         0.0615
     40 H13         2.0507   -1.1827    5.0796 H         1 <0>         0.0612
     41 H14         4.6402   -2.4639    5.9779 H         1 <0>         0.0446
     42 H15         3.1176   -2.4227    6.8989 H         1 <0>         0.0445
     43 H16         3.8837   -3.9829    6.5152 H         1 <0>         0.0912
     44 H17        -2.2488   -2.3299   -2.4213 H         1 <0>         0.1397
     45 H18        -3.4704   -1.6368   -4.4387 H         1 <0>         0.1360
     46 H19        -3.1936    0.6379   -5.3314 H         1 <0>         0.1338
     47 H20        -0.4684    1.5635   -2.1743 H         1 <0>         0.1359
     48 H21        -2.1948    3.8495   -5.7758 H         1 <0>         0.1022
     49 H22        -2.1145    2.1481   -6.2925 H         1 <0>         0.0579
     50 H23        -3.4710    2.7095   -5.2860 H         1 <0>         0.0572
@<TRIPOS>BOND
     1    1    2 1
     2    1   28 1
     3    1   29 1
     4    1   30 1
     5    2    3 1
     6    2   31 1
     7    2   32 1
     8    3    4 1
     9    4    9 ar
    10    4    5 ar
    11    5    6 ar
    12    5   33 1
    13    6    7 ar
    14    6   34 1
    15    7    8 ar
    16    7   10 1
    17    8    9 ar
    18    8   35 1
    19    9   36 1
    20   10   14 1
    21   10   11 1
    22   11   12 2
    23   11   20 1
    24   12   13 1
    25   13   14 2
    26   14   15 1
    27   15   16 1
    28   16   17 1
    29   16   37 1
    30   16   38 1
    31   17   18 1
    32   17   39 1
    33   17   40 1
    34   18   19 1
    35   19   41 1
    36   19   42 1
    37   19   43 1
    38   20   25 ar
    39   20   21 ar
    40   21   22 ar
    41   21   44 1
    42   22   23 ar
    43   22   45 1
    44   23   24 ar
    45   23   46 1
    46   24   25 ar
    47   24   26 1
    48   25   47 1
    49   26   27 1
    50   27   48 1
    51   27   49 1
    52   27   50 1
@<TRIPOS>MOLECULE
ZINC35112836
   55    56     0     0     0
SMALL
USER_CHARGES

@<TRIPOS>ATOM
      1 C1          0.2736    0.9843   -1.4434 C.3       1 <0>        -0.1526
      2 C2          0.3536   -0.5128   -1.1382 C.3       1 <0>        -0.1230
      3 C3          0.8996   -0.7165    0.2764 C.3       1 <0>        -0.1025
      4 C4          0.9797   -2.2136    0.5816 C.3       1 <0>        -0.1645
      5 C5          1.5175   -2.4142    1.9750 C.2       1 <0>         0.5440
      6 O1          1.9504   -1.4691    2.5998 O.2       1 <0>        -0.5296
      7 N1          1.5173   -3.6438    2.5269 N.am      1 <0>        -0.6006
      8 C6          2.0031   -3.8322    3.8961 C.3       1 <0>         0.1191
      9 C7          0.8397   -3.6714    4.8767 C.3       1 <0>        -0.1310
     10 C8          1.3470   -3.8682    6.3067 C.3       1 <0>         0.0637
     11 O2          0.2604   -3.7180    7.2225 O.3       1 <0>        -0.3917
     12 C9          0.6286   -3.8835    8.5933 C.3       1 <0>         0.0314
     13 C10         1.0313   -4.7919    1.7576 C.3       1 <0>         0.1903
     14 H1          1.2522   -5.7118    2.2990 H         1 <0>         0.1238
     15 C11         1.7255   -4.8231    0.3945 C.3       1 <0>        -0.1867
     16 C12        -0.4578   -4.6704    1.5603 C.2       1 <0>         0.3778
     17 N2         -1.0208   -3.5271    1.8089 N.2       1 <0>        -0.4985
     18 C13        -2.3558   -3.3436    1.6535 C.ar      1 <0>         0.1662
     19 C14        -2.9633   -2.1153    1.9197 C.ar      1 <0>        -0.0980
     20 C15        -4.3240   -1.9784    1.7461 C.ar      1 <0>         0.0110
     21 C16        -5.0967   -3.0484    1.3101 C.ar      1 <0>        -0.1278
     22 C17        -4.5234   -4.2608    1.0437 C.ar      1 <0>        -0.0263
     23 C18        -3.1496   -4.4251    1.2103 C.ar      1 <0>        -0.1951
     24 C19        -2.4807   -5.7054    0.9379 C.2       1 <0>         0.5509
     25 O3         -3.1061   -6.6763    0.5532 O.2       1 <0>        -0.4999
     26 N3         -1.1415   -5.7611    1.1262 N.am      1 <0>        -0.5381
     27 C20        -0.4235   -7.0110    0.8648 C.3       1 <0>         0.0444
     28 Cl1        -5.0815   -0.4517    2.0765 Cl        1 <0>        -0.0483
     29 H2          1.2686    1.4235   -1.3713 H         1 <0>         0.0547
     30 H3         -0.1154    1.1293   -2.4513 H         1 <0>         0.0532
     31 H4         -0.3894    1.4666   -0.7251 H         1 <0>         0.0547
     32 H5         -0.6414   -0.9521   -1.2104 H         1 <0>         0.0579
     33 H6          1.0166   -0.9951   -1.8565 H         1 <0>         0.0591
     34 H7          1.8946   -0.2773    0.3486 H         1 <0>         0.0678
     35 H8          0.2366   -0.2342    0.9947 H         1 <0>         0.0668
     36 H9         -0.0153   -2.6528    0.5095 H         1 <0>         0.1125
     37 H10         1.6427   -2.6959   -0.1367 H         1 <0>         0.0943
     38 H11         2.4277   -4.8310    3.9968 H         1 <0>         0.0790
     39 H12         2.7687   -3.0881    4.1156 H         1 <0>         0.0936
     40 H13         0.4151   -2.6726    4.7761 H         1 <0>         0.0795
     41 H14         0.0740   -4.4155    4.6572 H         1 <0>         0.0654
     42 H15         1.7717   -4.8670    6.4073 H         1 <0>         0.0484
     43 H16         2.1127   -3.1241    6.5262 H         1 <0>         0.0524
     44 H17         1.3793   -3.1397    8.8603 H         1 <0>         0.0426
     45 H18        -0.2511   -3.7544    9.2239 H         1 <0>         0.0865
     46 H19         1.0383   -4.8827    8.7414 H         1 <0>         0.0411
     47 H20         2.7466   -4.4562    0.4983 H         1 <0>         0.0902
     48 H21         1.7435   -5.8464    0.0193 H         1 <0>         0.0849
     49 H22         1.1809   -4.1891   -0.3052 H         1 <0>         0.0840
     50 H23        -2.3715   -1.2782    2.2595 H         1 <0>         0.1511
     51 H24        -6.1613   -2.9209    1.1807 H         1 <0>         0.1459
     52 H25        -5.1318   -5.0865    0.7054 H         1 <0>         0.1486
     53 H26        -0.4765   -7.6515    1.7453 H         1 <0>         0.0817
     54 H27        -0.8793   -7.5214    0.0163 H         1 <0>         0.0971
     55 H28         0.6197   -6.7903    0.6384 H         1 <0>         0.0985
@<TRIPOS>BOND
     1    1    2 1
     2    1   29 1
     3    1   30 1
     4    1   31 1
     5    2    3 1
     6    2   32 1
     7    2   33 1
     8    3    4 1
     9    3   34 1
    10    3   35 1
    11    4    5 1
    12    4   36 1
    13    4   37 1
    14    5    6 2
    15    5    7 am
    16    7    8 1
    17    7   13 1
    18    8    9 1
    19    8   38 1
    20    8   39 1
    21    9   10 1
    22    9   40 1
    23    9   41 1
    24   10   11 1
    25   10   42 1
    26   10   43 1
    27   11   12 1
    28   12   44 1
    29   12   45 1
    30   12   46 1
    31   13   14 1
    32   13   15 1
    33   13   16 1
    34   15   47 1
    35   15   48 1
    36   15   49 1
    37   16   26 1
    38   16   17 2
    39   17   18 1
    40   18   23 ar
    41   18   19 ar
    42   19   20 ar
    43   19   50 1
    44   20   21 ar
    45   20   28 1
    46   21   22 ar
    47   21   51 1
    48   22   23 ar
    49   22   52 1
    50   23   24 1
    51   24   25 2
    52   24   26 am
    53   26   27 1
    54   27   53 1
    55   27   54 1
    56   27   55 1
@<TRIPOS>MOLECULE
ZINC04919314
   58    60     0     0     0
SMALL
USER_CHARGES

@<TRIPOS>ATOM
      1 C1          0.3072    0.9720    0.0803 C.3       1 <0>        -0.1497
      2 C2          0.0473   -0.5338    0.0034 C.3       1 <0>        -0.0874
      3 C3         -1.4331   -0.7942    0.1117 C.ar      1 <0>        -0.0703
      4 C4         -2.0029   -1.0435    1.3452 C.ar      1 <0>        -0.1139
      5 C5         -3.3610   -1.2825    1.4454 C.ar      1 <0>        -0.0993
      6 C6         -4.1534   -1.2724    0.3119 C.ar      1 <0>        -0.1153
      7 C7         -3.5900   -1.0234   -0.9240 C.ar      1 <0>        -0.0678
      8 C8         -2.2268   -0.7782   -1.0275 C.ar      1 <0>         0.1101
      9 N1         -1.6537   -0.5203   -2.2777 N.am      1 <0>        -0.5714
     10 C9         -1.0114   -1.6033   -3.0265 C.3       1 <0>         0.2724
     11 O1         -2.0133   -2.4526   -3.5895 O.3       1 <0>        -0.3814
     12 C10        -2.5994   -1.9436   -4.7893 C.3       1 <0>         0.0524
     13 C11        -3.6523   -2.9290   -5.3004 C.3       1 <0>        -0.1523
     14 C12        -1.6925    0.7245   -2.7929 C.2       1 <0>         0.5079
     15 O2         -1.1350    0.9637   -3.8431 O.2       1 <0>        -0.5051
     16 C13        -2.4287    1.8190   -2.0642 C.3       1 <0>         0.0895
     17 N2         -2.4466    3.0290   -2.8898 N.pl3     1 <0>        -0.4669
     18 C14        -1.5000    4.0339   -2.8895 C.ar      1 <0>         0.0644
     19 C15        -0.3191    4.2496   -2.1920 C.ar      1 <0>        -0.1120
     20 C16         0.4174    5.3898   -2.4324 C.ar      1 <0>        -0.0950
     21 C17        -0.0139    6.3219   -3.3657 C.ar      1 <0>        -0.1281
     22 C18        -1.1734    6.1266   -4.0610 C.ar      1 <0>        -0.0583
     23 C19        -1.9360    4.9777   -3.8346 C.ar      1 <0>         0.0470
     24 N3         -3.1012    4.5103   -4.3518 N.2       1 <0>        -0.4645
     25 C20        -3.3961    3.3679   -3.8032 C.2       1 <0>         0.2880
     26 C21        -4.6139    2.5424   -4.1294 C.3       1 <0>         0.1403
     27 O3         -5.6921    2.9250   -3.2730 O.3       1 <0>        -0.3809
     28 C22        -6.9013    2.1985   -3.5010 C.3       1 <0>         0.0291
     29 C23        -4.4541   -1.0131   -2.1586 C.3       1 <0>        -0.1350
     30 H1          1.3648    1.1677   -0.0966 H         1 <0>         0.0651
     31 H2         -0.2884    1.4826   -0.6765 H         1 <0>         0.0450
     32 H3          0.0302    1.3385    1.0687 H         1 <0>         0.0625
     33 H4          0.4151   -0.9179   -0.9480 H         1 <0>         0.0712
     34 H5          0.5650   -1.0341    0.8218 H         1 <0>         0.0801
     35 H6         -1.3868   -1.0521    2.2321 H         1 <0>         0.1296
     36 H7         -3.8039   -1.4779    2.4108 H         1 <0>         0.1290
     37 H8         -5.2138   -1.4598    0.3934 H         1 <0>         0.1291
     38 H9         -0.4021   -1.1810   -3.8255 H         1 <0>         0.0935
     39 H10        -0.3786   -2.1837   -2.3551 H         1 <0>         0.1168
     40 H11        -3.0707   -0.9824   -4.5841 H         1 <0>         0.0460
     41 H12        -1.8251   -1.8145   -5.5456 H         1 <0>         0.0554
     42 H13        -4.0994   -2.5408   -6.2156 H         1 <0>         0.0729
     43 H14        -3.1810   -3.8902   -5.5057 H         1 <0>         0.0664
     44 H15        -4.4266   -3.0581   -4.5442 H         1 <0>         0.0631
     45 H16        -3.4517    1.4992   -1.8660 H         1 <0>         0.1238
     46 H17        -1.9249    2.0301   -1.1210 H         1 <0>         0.1250
     47 H18         0.0207    3.5276   -1.4641 H         1 <0>         0.1182
     48 H19         1.3362    5.5589   -1.8906 H         1 <0>         0.1314
     49 H20         0.5729    7.2109   -3.5438 H         1 <0>         0.1316
     50 H21        -1.5001    6.8589   -4.7845 H         1 <0>         0.1313
     51 H22        -4.8983    2.7092   -5.1683 H         1 <0>         0.0927
     52 H23        -4.3880    1.4866   -3.9795 H         1 <0>         0.0630
     53 H24        -6.7228    1.1356   -3.3381 H         1 <0>         0.0441
     54 H25        -7.6703    2.5475   -2.8119 H         1 <0>         0.0944
     55 H26        -7.2332    2.3581   -4.5269 H         1 <0>         0.0499
     56 H27        -4.8304   -0.0046   -2.3302 H         1 <0>         0.0633
     57 H28        -3.8639   -1.3317   -3.0179 H         1 <0>         0.0844
     58 H29        -5.2929   -1.6954   -2.0208 H         1 <0>         0.0748
@<TRIPOS>BOND
     1    1    2 1
     2    1   30 1
     3    1   31 1
     4    1   32 1
     5    2    3 1
     6    2   33 1
     7    2   34 1
     8    3    8 ar
     9    3    4 ar
    10    4    5 ar
    11    4   35 1
    12    5    6 ar
    13    5   36 1
    14    6    7 ar
    15    6   37 1
    16    7    8 ar
    17    7   29 1
    18    8    9 1
    19    9   10 1
    20    9   14 am
    21   10   11 1
    22   10   38 1
    23   10   39 1
    24   11   12 1
    25   12   13 1
    26   12   40 1
    27   12   41 1
    28   13   42 1
    29   13   43 1
    30   13   44 1
    31   14   15 2
    32   14   16 1
    33   16   17 1
    34   16   45 1
    35   16   46 1
    36   17   25 1
    37   17   18 1
    38   18   23 ar
    39   18   19 ar
    40   19   20 ar
    41   19   47 1
    42   20   21 ar
    43   20   48 1
    44   21   22 ar
    45   21   49 1
    46   22   23 ar
    47   22   50 1
    48   23   24 1
    49   24   25 2
    50   25   26 1
    51   26   27 1
    52   26   51 1
    53   26   52 1
    54   27   28 1
    55   28   53 1
    56   28   54 1
    57   28   55 1
    58   29   56 1
    59   29   57 1
    60   29   58 1
@<TRIPOS>MOLECULE
ZINC63310521
   47    48     0     0     0
SMALL
USER_CHARGES

@<TRIPOS>ATOM
      1 C1         11.2545   -8.5679    7.6675 C.3       1 <0>        -0.1533
      2 C2         10.8444   -7.1714    8.1392 C.3       1 <0>         0.0603
      3 O1          9.5414   -6.8635    7.6397 O.3       1 <0>        -0.3457
      4 C3          9.0294   -5.6612    7.9667 C.2       1 <0>         0.5040
      5 O2          9.6714   -4.8951    8.6569 O.2       1 <0>        -0.4920
      6 C4          7.6872   -5.2744    7.4858 C.ar      1 <0>        -0.0691
      7 C5          6.9442   -6.1549    6.6969 C.ar      1 <0>        -0.0819
      8 C6          5.6916   -5.7872    6.2513 C.ar      1 <0>        -0.0338
      9 C7          5.1711   -4.5492    6.5843 C.ar      1 <0>        -0.6490
     10 C8          5.9022   -3.6716    7.3653 C.ar      1 <0>        -0.0285
     11 C9          7.1535   -4.0289    7.8229 C.ar      1 <0>        -0.0748
     12 S1          3.5703   -4.0878    6.0107 S.o2      1 <0>         2.6853
     13 O3          3.5776   -2.6728    5.8810 O.2       1 <0>        -0.9435
     14 O4          3.2638   -4.9508    4.9242 O.2       1 <0>        -0.9450
     15 N1          2.4952   -4.4469    7.2181 N.pl3     1 <0>        -0.9856
     16 C10         1.9515   -5.8022    7.3355 C.3       1 <0>         0.1372
     17 C11         2.7727   -6.5890    8.3243 C.2       1 <0>        -0.1878
     18 C12         2.1910   -7.1662    9.3463 C.2       1 <0>        -0.1640
     19 C13         2.0880   -3.4093    8.1687 C.3       1 <0>         0.1616
     20 C14         0.7895   -2.7938    7.7148 C.ar      1 <0>        -0.1172
     21 C15         0.8017   -1.6314    6.9640 C.ar      1 <0>        -0.0705
     22 C16        -0.3856   -1.0597    6.5431 C.ar      1 <0>        -0.1196
     23 C17        -1.5911   -1.6460    6.8695 C.ar      1 <0>        -0.0630
     24 C18        -1.6108   -2.8190    7.6264 C.ar      1 <0>        -0.0323
     25 C19        -0.4083   -3.3934    8.0438 C.ar      1 <0>        -0.0542
     26 C20        -2.8583   -3.4331    7.9689 C.1       1 <0>         0.2505
     27 N2         -3.8479   -3.9203    8.2406 N.1       1 <0>        -0.4118
     28 H1         11.2676   -8.5942    6.5779 H         1 <0>         0.0684
     29 H2         12.2484   -8.8028    8.0486 H         1 <0>         0.0830
     30 H3         10.5398   -9.3018    8.0401 H         1 <0>         0.0681
     31 H4         10.8313   -7.1452    9.2288 H         1 <0>         0.0711
     32 H5         11.5591   -6.4376    7.7666 H         1 <0>         0.0713
     33 H6          7.3495   -7.1214    6.4360 H         1 <0>         0.1506
     34 H7          5.1160   -6.4672    5.6407 H         1 <0>         0.1519
     35 H8          5.4903   -2.7066    7.6210 H         1 <0>         0.1505
     36 H9          7.7211   -3.3450    8.4364 H         1 <0>         0.1499
     37 H10         0.9188   -5.7507    7.6804 H         1 <0>         0.0927
     38 H11         1.9856   -6.2929    6.3628 H         1 <0>         0.1050
     39 H12         3.8407   -6.6769    8.1903 H         1 <0>         0.1111
     40 H13         1.1230   -7.0782    9.4803 H         1 <0>         0.1003
     41 H14         2.7795   -7.7301   10.0549 H         1 <0>         0.1013
     42 H15         1.9545   -3.8527    9.1555 H         1 <0>         0.0980
     43 H16         2.8577   -2.6390    8.2176 H         1 <0>         0.1003
     44 H17         1.7426   -1.1683    6.7057 H         1 <0>         0.1454
     45 H18        -0.3689   -0.1520    5.9580 H         1 <0>         0.1379
     46 H19        -2.5173   -1.1984    6.5406 H         1 <0>         0.1345
     47 H20        -0.4163   -4.3028    8.6263 H         1 <0>         0.1324
@<TRIPOS>BOND
     1    1    2 1
     2    1   28 1
     3    1   29 1
     4    1   30 1
     5    2    3 1
     6    2   31 1
     7    2   32 1
     8    3    4 1
     9    4    5 2
    10    4    6 1
    11    6   11 ar
    12    6    7 ar
    13    7    8 ar
    14    7   33 1
    15    8    9 ar
    16    8   34 1
    17    9   10 ar
    18    9   12 1
    19   10   11 ar
    20   10   35 1
    21   11   36 1
    22   12   13 2
    23   12   14 2
    24   12   15 1
    25   15   16 1
    26   15   19 1
    27   16   17 1
    28   16   37 1
    29   16   38 1
    30   17   18 2
    31   17   39 1
    32   18   40 1
    33   18   41 1
    34   19   20 1
    35   19   42 1
    36   19   43 1
    37   20   25 ar
    38   20   21 ar
    39   21   22 ar
    40   21   44 1
    41   22   23 ar
    42   22   45 1
    43   23   24 ar
    44   23   46 1
    45   24   25 ar
    46   24   26 1
    47   25   47 1
    48   26   27 3
@<TRIPOS>MOLECULE
ZINC03318168
   39    41     0     0     0
SMALL
USER_CHARGES
2-[[4-phenethyl-5-(2-thienylmethyl)-1,2,4-triazol-3-yl]sulfanyl]acetonitrile
@<TRIPOS>ATOM
      1 C1         -5.7170   -2.3217   -0.9387 C.ar      1 <0>        -0.1169
      2 C2         -4.7838   -1.8225   -0.0495 C.ar      1 <0>        -0.1155
      3 C3         -3.4620   -1.6955   -0.4336 C.ar      1 <0>        -0.1151
      4 C4         -3.0735   -2.0672   -1.7071 C.ar      1 <0>        -0.0872
      5 C5         -4.0078   -2.5610   -2.5982 C.ar      1 <0>        -0.1115
      6 C6         -5.3285   -2.6933   -2.2122 C.ar      1 <0>        -0.1153
      7 C7         -1.6325   -1.9283   -2.1259 C.3       1 <0>        -0.1085
      8 C8         -0.8790   -3.2184   -1.7963 C.3       1 <0>         0.1073
      9 N1          0.5218   -3.0834   -2.2035 N.pl3     1 <0>        -0.4525
     10 C9          1.5594   -2.6108   -1.4483 C.2       1 <0>         0.1954
     11 N2          2.6318   -2.6632   -2.1865 N.2       1 <0>        -0.2672
     12 N3          2.3445   -3.1286   -3.3496 N.2       1 <0>        -0.2832
     13 C10         1.0619   -3.4006   -3.4167 C.2       1 <0>         0.1496
     14 S1          0.2016   -4.0571   -4.8072 S.3       1 <0>         0.0498
     15 C11         1.5702   -4.2052   -5.9824 C.3       1 <0>        -0.0183
     16 C12         1.0680   -4.7504   -7.2542 C.1       1 <0>         0.2112
     17 N4          0.6805   -5.1711   -8.2357 N.1       1 <0>        -0.3892
     18 C13         1.4786   -2.1255   -0.0239 C.3       1 <0>         0.0523
     19 C14         1.1962   -0.6452   -0.0128 C.2       1 <0>        -0.1543
     20 C15         0.0021   -0.0041    0.0020 C.2       1 <0>        -0.1534
     21 C16        -0.0167    1.3780    0.0096 C.2       1 <0>        -0.1611
     22 C17         1.1597    2.0514    0.0020 C.2       1 <0>        -0.1696
     23 S2          2.3478    0.7191   -0.0165 S.3       1 <0>         0.0732
     24 H1         -6.7496   -2.4216   -0.6384 H         1 <0>         0.1237
     25 H2         -5.0873   -1.5321    0.9455 H         1 <0>         0.1244
     26 H3         -2.7328   -1.3055    0.2612 H         1 <0>         0.1210
     27 H4         -3.7051   -2.8473   -3.5946 H         1 <0>         0.1239
     28 H5         -6.0576   -3.0836   -2.9069 H         1 <0>         0.1247
     29 H6         -1.1773   -1.0948   -1.5909 H         1 <0>         0.0942
     30 H7         -1.5823   -1.7422   -3.1988 H         1 <0>         0.0855
     31 H8         -1.3342   -4.0519   -2.3314 H         1 <0>         0.1039
     32 H9         -0.9292   -3.4045   -0.7235 H         1 <0>         0.1045
     33 H10         2.0079   -3.2222   -6.1561 H         1 <0>         0.1450
     34 H11         2.3284   -4.8737   -5.5747 H         1 <0>         0.1453
     35 H12         2.4257   -2.3185    0.4800 H         1 <0>         0.1206
     36 H13         0.6773   -2.6521    0.4945 H         1 <0>         0.1076
     37 H14        -0.9210   -0.5647    0.0075 H         1 <0>         0.1341
     38 H15        -0.9546    1.9134    0.0170 H         1 <0>         0.1346
     39 H16         1.3332    3.1174    0.0058 H         1 <0>         0.1870
@<TRIPOS>BOND
     1    1    6 ar
     2    1    2 ar
     3    1   24 1
     4    2    3 ar
     5    2   25 1
     6    3    4 ar
     7    3   26 1
     8    4    5 ar
     9    4    7 1
    10    5    6 ar
    11    5   27 1
    12    6   28 1
    13    7    8 1
    14    7   29 1
    15    7   30 1
    16    8    9 1
    17    8   31 1
    18    8   32 1
    19    9   13 1
    20    9   10 1
    21   10   11 2
    22   10   18 1
    23   11   12 1
    24   12   13 2
    25   13   14 1
    26   14   15 1
    27   15   16 1
    28   15   33 1
    29   15   34 1
    30   16   17 3
    31   18   19 1
    32   18   35 1
    33   18   36 1
    34   19   23 1
    35   19   20 2
    36   20   21 1
    37   20   37 1
    38   21   22 2
    39   21   38 1
    40   22   23 1
    41   22   39 1
@<TRIPOS>MOLECULE
ZINC14091439
   42    44     0     0     0
SMALL
USER_CHARGES
4-allyl-3-benzyl-5-[(4-fluorophenyl)methylsulfanyl]-1,2,4-triazole
@<TRIPOS>ATOM
      1 C1          0.0160    1.2856   -0.0987 C.2       1 <0>        -0.1522
      2 C2          0.0306   -0.0215   -0.0129 C.2       1 <0>        -0.1867
      3 C3         -1.2638   -0.7828    0.1146 C.3       1 <0>         0.1323
      4 N1         -1.3446   -1.7898   -0.9463 N.pl3     1 <0>        -0.4555
      5 C4         -1.8045   -1.6104   -2.2217 C.2       1 <0>         0.1987
      6 N2         -1.7021   -2.7552   -2.8355 N.2       1 <0>        -0.2774
      7 N3         -1.2200   -3.6413   -2.0391 N.2       1 <0>        -0.2890
      8 C5         -0.9820   -3.1036   -0.8653 C.2       1 <0>         0.1525
      9 S1         -0.3191   -3.9223    0.5472 S.3       1 <0>         0.0065
     10 C6         -0.1080   -5.5892   -0.1260 C.3       1 <0>        -0.0588
     11 C7          0.4642   -6.4914    0.9369 C.ar      1 <0>        -0.0960
     12 C8          1.8341   -6.6255    1.0648 C.ar      1 <0>        -0.0681
     13 C9          2.3600   -7.4489    2.0423 C.ar      1 <0>        -0.1532
     14 C10         1.5141   -8.1478    2.8867 C.ar      1 <0>         0.1093
     15 C11         0.1421   -8.0168    2.7542 C.ar      1 <0>        -0.1531
     16 C12        -0.3814   -7.1887    1.7794 C.ar      1 <0>        -0.0683
     17 F1          2.0271   -8.9566    3.8395 F         1 <0>        -0.1362
     18 C13        -2.3300   -0.3260   -2.8092 C.3       1 <0>         0.0077
     19 C14        -3.8330   -0.3027   -2.7023 C.ar      1 <0>        -0.0891
     20 C15        -4.6047   -0.9084   -3.6762 C.ar      1 <0>        -0.0976
     21 C16        -5.9833   -0.8911   -3.5756 C.ar      1 <0>        -0.1170
     22 C17        -6.5904   -0.2591   -2.5066 C.ar      1 <0>        -0.1159
     23 C18        -5.8189    0.3511   -1.5354 C.ar      1 <0>        -0.1194
     24 C19        -4.4402    0.3294   -1.6333 C.ar      1 <0>        -0.1153
     25 H1          0.9448    1.8365   -0.1085 H         1 <0>         0.1111
     26 H2         -0.9248    1.8120   -0.1641 H         1 <0>         0.1029
     27 H3          0.9702   -0.5536   -0.0335 H         1 <0>         0.1206
     28 H4         -1.3015   -1.2750    1.0864 H         1 <0>         0.1089
     29 H5         -2.1020   -0.0919    0.0245 H         1 <0>         0.1023
     30 H6         -1.0747   -5.9757   -0.4489 H         1 <0>         0.1092
     31 H7          0.5719   -5.5539   -0.9772 H         1 <0>         0.1095
     32 H8          2.4937   -6.0834    0.4034 H         1 <0>         0.1378
     33 H9          3.4304   -7.5503    2.1447 H         1 <0>         0.1403
     34 H10        -0.5186   -8.5611    3.4125 H         1 <0>         0.1402
     35 H11        -1.4515   -7.0861    1.6761 H         1 <0>         0.1378
     36 H12        -1.9137    0.5204   -2.2629 H         1 <0>         0.0923
     37 H13        -2.0392   -0.2603   -3.8576 H         1 <0>         0.1116
     38 H14        -4.1304   -1.3983   -4.5137 H         1 <0>         0.1282
     39 H15        -6.5861   -1.3676   -4.3346 H         1 <0>         0.1252
     40 H16        -7.6676   -0.2418   -2.4304 H         1 <0>         0.1235
     41 H17        -6.2932    0.8452   -0.7004 H         1 <0>         0.1236
     42 H18        -3.8374    0.8065   -0.8747 H         1 <0>         0.1171
@<TRIPOS>BOND
     1    1    2 2
     2    1   25 1
     3    1   26 1
     4    2    3 1
     5    2   27 1
     6    3    4 1
     7    3   28 1
     8    3   29 1
     9    4    8 1
    10    4    5 1
    11    5    6 2
    12    5   18 1
    13    6    7 1
    14    7    8 2
    15    8    9 1
    16    9   10 1
    17   10   11 1
    18   10   30 1
    19   10   31 1
    20   11   16 ar
    21   11   12 ar
    22   12   13 ar
    23   12   32 1
    24   13   14 ar
    25   13   33 1
    26   14   15 ar
    27   14   17 1
    28   15   16 ar
    29   15   34 1
    30   16   35 1
    31   18   19 1
    32   18   36 1
    33   18   37 1
    34   19   24 ar
    35   19   20 ar
    36   20   21 ar
    37   20   38 1
    38   21   22 ar
    39   21   39 1
    40   22   23 ar
    41   22   40 1
    42   23   24 ar
    43   23   41 1
    44   24   42 1
@<TRIPOS>MOLECULE
ZINC37409639
   33    33     0     0     0
SMALL
USER_CHARGES

@<TRIPOS>ATOM
      1 C1         -0.0187    1.5258    0.0104 C.3       1 <0>        -0.1517
      2 C2          0.0021   -0.0041    0.0020 C.3       1 <0>         0.0501
      3 O1          0.6709   -0.4649   -1.1737 O.3       1 <0>        -0.2933
      4 C3          0.7768   -1.8110   -1.3363 C.ar      1 <0>         0.1285
      5 C4          0.2434   -2.6690   -0.3876 C.ar      1 <0>        -0.1698
      6 C5          0.3521   -4.0370   -0.5537 C.ar      1 <0>        -0.0557
      7 C6          0.9924   -4.5530   -1.6651 C.ar      1 <0>        -0.1008
      8 C7          1.5270   -3.7024   -2.6158 C.ar      1 <0>        -0.0744
      9 C8          1.4158   -2.3294   -2.4580 C.ar      1 <0>         0.0975
     10 O2          1.9359   -1.4913   -3.3944 O.3       1 <0>        -0.3038
     11 C9          3.2926   -1.0799   -3.2150 C.3       1 <0>         0.0682
     12 C10         3.6981   -0.1471   -4.3579 C.3       1 <0>         0.0649
     13 O3          2.9267    1.0538   -4.2891 O.3       1 <0>        -0.3803
     14 C11         3.2291    1.9986   -5.3177 C.3       1 <0>         0.0304
     15 Br1         2.4032   -4.4120   -4.1339 Br        1 <0>        -0.0219
     16 C12        -0.2282   -4.9682    0.4794 C.3       1 <0>        -0.0417
     17 Br2        -2.0902   -5.3895    0.0096 Br        1 <0>        -0.1392
     18 H1          1.0039    1.9031    0.0027 H         1 <0>         0.0676
     19 H2         -0.5459    1.8868   -0.8726 H         1 <0>         0.0691
     20 H3         -0.5289    1.8773    0.9072 H         1 <0>         0.0800
     21 H4          0.5293   -0.3651    0.8851 H         1 <0>         0.0630
     22 H5         -1.0205   -0.3814    0.0098 H         1 <0>         0.0651
     23 H6         -0.2569   -2.2688    0.4818 H         1 <0>         0.1418
     24 H7          1.0756   -5.6224   -1.7911 H         1 <0>         0.1423
     25 H8          3.3903   -0.5545   -2.2650 H         1 <0>         0.0647
     26 H9          3.9409   -1.9562   -3.2138 H         1 <0>         0.0701
     27 H10         4.7571    0.0958   -4.2703 H         1 <0>         0.0692
     28 H11         3.5165   -0.6415   -5.3122 H         1 <0>         0.0618
     29 H12         3.0377    1.5488   -6.2919 H         1 <0>         0.0422
     30 H13         2.6019    2.8817   -5.1957 H         1 <0>         0.0869
     31 H14         4.2783    2.2860   -5.2500 H         1 <0>         0.0404
     32 H15         0.3561   -5.8879    0.5086 H         1 <0>         0.1154
     33 H16        -0.1999   -4.4885    1.4577 H         1 <0>         0.1134
@<TRIPOS>BOND
     1    1    2 1
     2    1   18 1
     3    1   19 1
     4    1   20 1
     5    2    3 1
     6    2   21 1
     7    2   22 1
     8    3    4 1
     9    4    9 ar
    10    4    5 ar
    11    5    6 ar
    12    5   23 1
    13    6    7 ar
    14    6   16 1
    15    7    8 ar
    16    7   24 1
    17    8    9 ar
    18    8   15 1
    19    9   10 1
    20   10   11 1
    21   11   12 1
    22   11   25 1
    23   11   26 1
    24   12   13 1
    25   12   27 1
    26   12   28 1
    27   13   14 1
    28   14   29 1
    29   14   30 1
    30   14   31 1
    31   16   17 1
    32   16   32 1
    33   16   33 1
@<TRIPOS>MOLECULE
ZINC47981775
   41    42     0     0     0
SMALL
USER_CHARGES

@<TRIPOS>ATOM
      1 C1         -0.0157    1.3058    0.0092 C.2       1 <0>        -0.1720
      2 C2          0.0021   -0.0041    0.0020 C.2       1 <0>        -0.1802
      3 C3          1.3172   -0.7397   -0.0145 C.3       1 <0>         0.1318
      4 N1          1.3674   -1.6756    1.1115 N.am      1 <0>        -0.6027
      5 C4          0.8782   -3.0466    0.9468 C.3       1 <0>         0.2018
      6 C5          2.0084   -3.9315    0.4877 C.2       1 <0>        -0.1698
      7 C6          2.8898   -4.6449    1.2304 C.2       1 <0>        -0.1304
      8 C7          3.8550   -5.3962    0.5867 C.2       1 <0>        -0.1589
      9 C8          3.8917   -5.3975   -0.7683 C.2       1 <0>        -0.1654
     10 S1          2.5289   -4.3185   -1.1756 S.3       1 <0>         0.0288
     11 C9          1.8637   -1.2752    2.2989 C.2       1 <0>         0.5381
     12 O1          1.9052   -2.0500    3.2311 O.2       1 <0>        -0.5075
     13 C10         2.3669    0.1351    2.4683 C.3       1 <0>        -0.1339
     14 S2          2.9662    0.3635    4.1652 S.3       1 <0>        -0.1629
     15 C11         3.5290    2.0876    4.2034 C.3       1 <0>        -0.0735
     16 C12         4.0588    2.4127    5.5763 C.ar      1 <0>        -0.0441
     17 C13         3.2034    2.9062    6.5454 C.ar      1 <0>        -0.1006
     18 C14         3.6815    3.2059    7.8041 C.ar      1 <0>        -0.0687
     19 C15         5.0321    3.0098    8.0993 C.ar      1 <0>        -0.0220
     20 C16         5.8897    2.5110    7.1167 C.ar      1 <0>        -0.0688
     21 C17         5.3971    2.2110    5.8636 C.ar      1 <0>        -0.1008
     22 C18         5.5356    3.3192    9.4037 C.1       1 <0>         0.2499
     23 N2          5.9350    3.5646   10.4385 N.1       1 <0>        -0.4104
     24 H1          0.9122    1.8585    0.0033 H         1 <0>         0.0985
     25 H2         -0.9582    1.8330    0.0166 H         1 <0>         0.1045
     26 H3         -0.9258   -0.5567    0.0079 H         1 <0>         0.1157
     27 H4          1.4134   -1.2911   -0.9498 H         1 <0>         0.0930
     28 H5          2.1349   -0.0241    0.0711 H         1 <0>         0.0855
     29 H6          0.4943   -3.4123    1.8992 H         1 <0>         0.1100
     30 H7          0.0807   -3.0611    0.2039 H         1 <0>         0.0962
     31 H8          2.8388   -4.6262    2.3091 H         1 <0>         0.1371
     32 H9          4.5695   -5.9734    1.1548 H         1 <0>         0.1348
     33 H10         4.5673   -5.9192   -1.4299 H         1 <0>         0.1860
     34 H11         3.1818    0.3167    1.7676 H         1 <0>         0.1098
     35 H12         1.5558    0.8363    2.2720 H         1 <0>         0.1129
     36 H13         4.3195    2.2282    3.4663 H         1 <0>         0.0953
     37 H14         2.6935    2.7478    3.9706 H         1 <0>         0.0958
     38 H15         2.1590    3.0575    6.3157 H         1 <0>         0.1371
     39 H16         3.0129    3.5918    8.5594 H         1 <0>         0.1365
     40 H17         6.9354    2.3569    7.3384 H         1 <0>         0.1364
     41 H18         6.0584    1.8213    5.1038 H         1 <0>         0.1369
@<TRIPOS>BOND
     1    1    2 2
     2    1   24 1
     3    1   25 1
     4    2    3 1
     5    2   26 1
     6    3    4 1
     7    3   27 1
     8    3   28 1
     9    4    5 1
    10    4   11 am
    11    5    6 1
    12    5   29 1
    13    5   30 1
    14    6   10 1
    15    6    7 2
    16    7    8 1
    17    7   31 1
    18    8    9 2
    19    8   32 1
    20    9   10 1
    21    9   33 1
    22   11   12 2
    23   11   13 1
    24   13   14 1
    25   13   34 1
    26   13   35 1
    27   14   15 1
    28   15   16 1
    29   15   36 1
    30   15   37 1
    31   16   21 ar
    32   16   17 ar
    33   17   18 ar
    34   17   38 1
    35   18   19 ar
    36   18   39 1
    37   19   20 ar
    38   19   22 1
    39   20   21 ar
    40   20   40 1
    41   21   41 1
    42   22   23 3
@<TRIPOS>MOLECULE
ZINC66025178
   40    41     0     0     0
SMALL
USER_CHARGES

@<TRIPOS>ATOM
      1 C1          0.0732    1.9054   -0.4691 C.3       1 <0>        -0.1771
      2 C2         -0.0251    0.4014   -0.2059 C.3       1 <0>         0.0751
      3 C3          0.5795   -0.3516   -1.3628 C.2       1 <0>         0.5234
      4 O1         -0.1387   -0.9185   -2.1591 O.2       1 <0>        -0.4889
      5 N1          1.9182   -0.3951   -1.5127 N.am      1 <0>        -0.5677
      6 C4          2.7892    0.1855   -0.4878 C.3       1 <0>         0.1879
      7 C5          3.2290   -0.8937    0.4678 C.2       1 <0>        -0.1832
      8 C6          4.3212   -1.6942    0.4072 C.2       1 <0>        -0.1222
      9 C7          4.5262   -2.6252    1.4082 C.2       1 <0>        -0.1584
     10 C8          3.6291   -2.7100    2.4208 C.2       1 <0>        -0.1570
     11 S1          2.4510   -1.4441    1.9774 S.3       1 <0>         0.0364
     12 C9          2.4769   -0.9958   -2.6489 C.ar      1 <0>         0.0897
     13 C10         2.7295   -0.2370   -3.7832 C.ar      1 <0>        -0.0496
     14 C11         3.2802   -0.8306   -4.9024 C.ar      1 <0>        -0.1572
     15 C12         3.5808   -2.1824   -4.8943 C.ar      1 <0>         0.1416
     16 C13         3.3299   -2.9429   -3.7649 C.ar      1 <0>        -0.1902
     17 C14         2.7843   -2.3517   -2.6398 C.ar      1 <0>         0.1488
     18 F1          2.5448   -3.0921   -1.5354 F         1 <0>        -0.1169
     19 F2          4.1193   -2.7601   -5.9904 F         1 <0>        -0.1261
     20 O2         -1.3980    0.0317   -0.0622 O.3       1 <0>        -0.3505
     21 C15        -1.8812    0.1013    1.2808 C.3       1 <0>         0.0854
     22 C16        -3.3313   -0.3074    1.3148 C.2       1 <0>        -0.1539
     23 C17        -3.7585   -1.1298    2.2407 C.2       1 <0>        -0.1743
     24 H1          1.1079    2.1690   -0.6883 H         1 <0>         0.0753
     25 H2         -0.5565    2.1674   -1.3194 H         1 <0>         0.0792
     26 H3         -0.2618    2.4513    0.4129 H         1 <0>         0.0771
     27 H4          0.5147    0.1566    0.7089 H         1 <0>         0.0831
     28 H5          3.6643    0.6285   -0.9632 H         1 <0>         0.1113
     29 H6          2.2442    0.9549    0.0590 H         1 <0>         0.1072
     30 H7          5.0205   -1.6062   -0.4110 H         1 <0>         0.1305
     31 H8          5.3882   -3.2754    1.3837 H         1 <0>         0.1360
     32 H9          3.6292   -3.3696    3.2760 H         1 <0>         0.1875
     33 H10         2.4952    0.8173   -3.7910 H         1 <0>         0.1481
     34 H11         3.4763   -0.2398   -5.7850 H         1 <0>         0.1505
     35 H12         3.5647   -3.9970   -3.7607 H         1 <0>         0.1535
     36 H13        -1.2994   -0.5709    1.9115 H         1 <0>         0.0581
     37 H14        -1.7826    1.1221    1.6500 H         1 <0>         0.0636
     38 H15        -4.0183    0.0776    0.5757 H         1 <0>         0.1190
     39 H16        -4.7978   -1.4227    2.2650 H         1 <0>         0.1068
     40 H17        -3.0715   -1.5148    2.9797 H         1 <0>         0.0983
@<TRIPOS>BOND
     1    1    2 1
     2    1   24 1
     3    1   25 1
     4    1   26 1
     5    2    3 1
     6    2   20 1
     7    2   27 1
     8    3    4 2
     9    3    5 am
    10    5    6 1
    11    5   12 1
    12    6    7 1
    13    6   28 1
    14    6   29 1
    15    7   11 1
    16    7    8 2
    17    8    9 1
    18    8   30 1
    19    9   10 2
    20    9   31 1
    21   10   11 1
    22   10   32 1
    23   12   17 ar
    24   12   13 ar
    25   13   14 ar
    26   13   33 1
    27   14   15 ar
    28   14   34 1
    29   15   16 ar
    30   15   19 1
    31   16   17 ar
    32   16   35 1
    33   17   18 1
    34   20   21 1
    35   21   22 1
    36   21   36 1
    37   21   37 1
    38   22   23 2
    39   22   38 1
    40   23   39 1
    41   23   40 1
@<TRIPOS>MOLECULE
ZINC35055582
   37    38     0     0     0
SMALL
USER_CHARGES

@<TRIPOS>ATOM
      1 C1         -0.0187    1.5258    0.0104 C.3       1 <0>        -0.1501
      2 C2          0.0021   -0.0041    0.0020 C.3       1 <0>        -0.0492
      3 C3          0.7074   -0.4901   -1.2379 C.2       1 <0>        -0.1642
      4 C4          2.0301   -0.7545   -1.3952 C.2       1 <0>        -0.1984
      5 C5          2.4830   -1.1930   -2.6134 C.2       1 <0>        -0.0365
      6 C6          1.5142   -1.3296   -3.6033 C.2       1 <0>        -0.3072
      7 S1          0.0357   -0.8353   -2.7385 S.3       1 <0>         0.2248
      8 C7          1.6629   -1.7538   -4.9422 C.2       1 <0>         0.4402
      9 O1          2.7599   -2.0597   -5.3640 O.2       1 <0>        -0.4226
     10 C8          0.4603   -1.8268   -5.8475 C.3       1 <0>         0.0095
     11 O2          0.8647   -2.2794   -7.1412 O.3       1 <0>        -0.2858
     12 C9         -0.1068   -2.4014   -8.0836 C.ar      1 <0>         0.1820
     13 C10        -1.4213   -2.0864   -7.7714 C.ar      1 <0>        -0.2319
     14 C11        -2.4069   -2.2109   -8.7313 C.ar      1 <0>         0.0191
     15 C12        -2.0843   -2.6494  -10.0023 C.ar      1 <0>        -0.6988
     16 C13        -0.7750   -2.9644  -10.3159 C.ar      1 <0>         0.0164
     17 C14         0.2152   -2.8358   -9.3613 C.ar      1 <0>        -0.1667
     18 S2         -3.3438   -2.8076  -11.2242 S.o2      1 <0>         2.5050
     19 O3         -2.8577   -3.7979  -12.1199 O.2       1 <0>        -0.9378
     20 O4         -4.5395   -3.0219  -10.4869 O.2       1 <0>        -0.9391
     21 C15        -3.3990   -1.1927  -12.0486 C.3       1 <0>        -0.6513
     22 H1          1.0039    1.9031    0.0027 H         1 <0>         0.0611
     23 H2         -0.5459    1.8868   -0.8726 H         1 <0>         0.0593
     24 H3         -0.5289    1.8773    0.9072 H         1 <0>         0.0694
     25 H4          0.5293   -0.3651    0.8851 H         1 <0>         0.0914
     26 H5         -1.0205   -0.3814    0.0098 H         1 <0>         0.0845
     27 H6          2.7165   -0.6209   -0.5721 H         1 <0>         0.1415
     28 H7          3.5241   -1.4173   -2.7929 H         1 <0>         0.1520
     29 H8         -0.2671   -2.5230   -5.4299 H         1 <0>         0.1035
     30 H9          0.0093   -0.8381   -5.9330 H         1 <0>         0.1032
     31 H10        -1.6739   -1.7445   -6.7786 H         1 <0>         0.1390
     32 H11        -3.4304   -1.9658   -8.4887 H         1 <0>         0.1469
     33 H12        -0.5256   -3.3071  -11.3092 H         1 <0>         0.1511
     34 H13         1.2385   -3.0777   -9.6079 H         1 <0>         0.1445
     35 H14        -2.4281   -0.9795  -12.4957 H         1 <0>         0.1315
     36 H15        -4.1619   -1.2080  -12.8270 H         1 <0>         0.1328
     37 H16        -3.6403   -0.4201  -11.3185 H         1 <0>         0.1307
@<TRIPOS>BOND
     1    1    2 1
     2    1   22 1
     3    1   23 1
     4    1   24 1
     5    2    3 1
     6    2   25 1
     7    2   26 1
     8    3    7 1
     9    3    4 2
    10    4    5 1
    11    4   27 1
    12    5    6 2
    13    5   28 1
    14    6    7 1
    15    6    8 1
    16    8    9 2
    17    8   10 1
    18   10   11 1
    19   10   29 1
    20   10   30 1
    21   11   12 1
    22   12   17 ar
    23   12   13 ar
    24   13   14 ar
    25   13   31 1
    26   14   15 ar
    27   14   32 1
    28   15   16 ar
    29   15   18 1
    30   16   17 ar
    31   16   33 1
    32   17   34 1
    33   18   19 2
    34   18   20 2
    35   18   21 1
    36   21   35 1
    37   21   36 1
    38   21   37 1
@<TRIPOS>MOLECULE
ZINC42495400
   39    39     0     0     0
SMALL
USER_CHARGES

@<TRIPOS>ATOM
      1 C1         -2.7121   -6.7822    3.0963 C.3       1 <0>        -0.1465
      2 C2         -2.9911   -5.4839    2.3365 C.3       1 <0>        -0.1334
      3 C3         -1.7807   -5.1299    1.4700 C.3       1 <0>         0.1028
      4 N1         -1.9993   -3.8283    0.8341 N.pl3     1 <0>        -0.3994
      5 C4         -2.4519   -3.6313   -0.4289 C.2       1 <0>         0.0573
      6 C5         -2.5272   -2.2990   -0.6643 C.2       1 <0>        -0.1805
      7 C6         -2.1066   -1.6347    0.4926 C.2       1 <0>        -0.1372
      8 C7         -1.7852   -2.6020    1.4212 C.2       1 <0>        -0.0393
      9 C8         -1.3000   -2.3669    2.7853 C.2       1 <0>         0.5883
     10 O1         -1.2404   -3.2890    3.5772 O.2       1 <0>        -0.5443
     11 N2         -0.9203   -1.1297    3.1616 N.am      1 <0>        -0.5906
     12 C9         -1.0217   -0.0136    2.2180 C.3       1 <0>         0.0842
     13 C10        -2.4508    0.5326    2.2258 C.3       1 <0>        -0.1855
     14 C11        -0.4063   -0.9010    4.5142 C.3       1 <0>         0.1214
     15 C12         1.1118   -1.0914    4.5219 C.3       1 <0>         0.0437
     16 O2          1.7221   -0.0859    3.7104 O.3       1 <0>        -0.3890
     17 C13         3.1471   -0.1740    3.6494 C.3       1 <0>         0.0321
     18 Br1        -3.0991   -1.4828   -2.2713 Br        1 <0>        -0.0272
     19 H1         -3.5367   -6.9882    3.7787 H         1 <0>         0.0615
     20 H2         -2.6131   -7.6041    2.3873 H         1 <0>         0.0551
     21 H3         -1.7875   -6.6792    3.6644 H         1 <0>         0.0604
     22 H4         -3.8667   -5.6159    1.7009 H         1 <0>         0.0643
     23 H5         -3.1764   -4.6792    3.0479 H         1 <0>         0.0780
     24 H6         -0.8882   -5.0841    2.0940 H         1 <0>         0.1015
     25 H7         -1.6484   -5.8919    0.7019 H         1 <0>         0.0924
     26 H8         -2.7097   -4.4091   -1.1324 H         1 <0>         0.1776
     27 H9         -2.0485   -0.5655    0.6334 H         1 <0>         0.1822
     28 H10        -0.3296    0.7753    2.5127 H         1 <0>         0.0937
     29 H11        -0.7710   -0.3612    1.2158 H         1 <0>         0.0971
     30 H12        -3.1534   -0.2856    2.0673 H         1 <0>         0.0669
     31 H13        -2.6541    1.0050    3.1868 H         1 <0>         0.0627
     32 H14        -2.5632    1.2675    1.4287 H         1 <0>         0.0750
     33 H15        -0.6465    0.1151    4.8273 H         1 <0>         0.0903
     34 H16        -0.8650   -1.6112    5.2022 H         1 <0>         0.1020
     35 H17         1.4832   -1.0089    5.5433 H         1 <0>         0.0612
     36 H18         1.3564   -2.0766    4.1248 H         1 <0>         0.0532
     37 H19         3.5336    0.6234    3.0146 H         1 <0>         0.0870
     38 H20         3.5607   -0.0725    4.6527 H         1 <0>         0.0416
     39 H21         3.4339   -1.1401    3.2342 H         1 <0>         0.0395
@<TRIPOS>BOND
     1    1    2 1
     2    1   19 1
     3    1   20 1
     4    1   21 1
     5    2    3 1
     6    2   22 1
     7    2   23 1
     8    3    4 1
     9    3   24 1
    10    3   25 1
    11    4    8 1
    12    4    5 1
    13    5    6 2
    14    5   26 1
    15    6    7 1
    16    6   18 1
    17    7    8 2
    18    7   27 1
    19    8    9 1
    20    9   10 2
    21    9   11 am
    22   11   12 1
    23   11   14 1
    24   12   13 1
    25   12   28 1
    26   12   29 1
    27   13   30 1
    28   13   31 1
    29   13   32 1
    30   14   15 1
    31   14   33 1
    32   14   34 1
    33   15   16 1
    34   15   35 1
    35   15   36 1
    36   16   17 1
    37   17   37 1
    38   17   38 1
    39   17   39 1
@<TRIPOS>MOLECULE
ZINC59402470
   41    43     0     0     0
SMALL
USER_CHARGES

@<TRIPOS>ATOM
      1 C1         -0.0187    1.5258    0.0104 C.3       1 <0>        -0.1909
      2 C2          0.0021   -0.0041    0.0020 C.3       1 <0>         0.1666
      3 H1          0.5293   -0.3651    0.8851 H         1 <0>         0.1328
      4 C3          0.7074   -0.4901   -1.2379 C.2       1 <0>         0.3108
      5 N1          1.9106   -0.9909   -1.2860 N.2       1 <0>        -0.5335
      6 C4          2.2217   -1.3183   -2.5452 C.2       1 <0>         0.2867
      7 N2          1.2145   -1.0281   -3.3176 N.2       1 <0>        -0.3441
      8 O1          0.2045   -0.4873   -2.4788 O.3       1 <0>        -0.0996
      9 C5          3.5258   -1.9240   -2.9963 C.3       1 <0>        -0.0923
     10 C6          3.7672   -2.0400   -4.5027 C.3       1 <0>        -0.1565
     11 C7          3.4708   -3.2933   -3.6767 C.3       1 <0>        -0.1507
     12 N3         -1.3761   -0.5125    0.0124 N.3       1 <0>        -0.5237
     13 C8         -2.1260   -0.0249   -1.1528 C.3       1 <0>         0.0008
     14 C9         -2.0587   -0.1577    1.2639 C.3       1 <0>         0.0742
     15 C10        -3.3702   -0.8952    1.3473 C.ar      1 <0>        -0.0326
     16 C11        -4.5479   -0.2508    1.0166 C.ar      1 <0>        -0.1140
     17 C12        -5.7508   -0.9272    1.0931 C.ar      1 <0>        -0.0875
     18 C13        -5.7763   -2.2484    1.4999 C.ar      1 <0>        -0.1171
     19 C14        -4.5989   -2.8928    1.8296 C.ar      1 <0>        -0.0746
     20 C15        -3.3952   -2.2174    1.7490 C.ar      1 <0>        -0.1606
     21 C16        -2.1109   -2.9217    2.1035 C.3       1 <0>         0.5054
     22 F1         -2.3900   -4.2408    2.4767 F         1 <0>        -0.1811
     23 F2         -1.2575   -2.9213    0.9949 F         1 <0>        -0.1558
     24 F3         -1.4929   -2.2567    3.1679 F         1 <0>        -0.1797
     25 H2          1.0039    1.9031    0.0027 H         1 <0>         0.0772
     26 H3         -0.5459    1.8868   -0.8726 H         1 <0>         0.0728
     27 H4         -0.5289    1.8773    0.9072 H         1 <0>         0.0837
     28 H5          4.3871   -1.7109   -2.3632 H         1 <0>         0.1411
     29 H6          2.9828   -1.6782   -5.1674 H         1 <0>         0.1048
     30 H7          4.7875   -1.9029   -4.8609 H         1 <0>         0.1117
     31 H8          4.2961   -3.9808   -3.4916 H         1 <0>         0.1130
     32 H9          2.4914   -3.7560   -3.7981 H         1 <0>         0.0997
     33 H10        -1.6363   -0.3612   -2.0667 H         1 <0>         0.0875
     34 H11        -3.1428   -0.4162   -1.1203 H         1 <0>         0.0786
     35 H12        -2.1553    1.0646   -1.1361 H         1 <0>         0.0406
     36 H13        -1.4314   -0.4349    2.1111 H         1 <0>         0.0995
     37 H14        -2.2438    0.9163    1.2849 H         1 <0>         0.0653
     38 H15        -4.5279    0.7812    0.6988 H         1 <0>         0.1332
     39 H16        -6.6708   -0.4237    0.8354 H         1 <0>         0.1336
     40 H17        -6.7163   -2.7767    1.5603 H         1 <0>         0.1355
     41 H18        -4.6189   -3.9247    2.1477 H         1 <0>         0.1391
@<TRIPOS>BOND
     1    1    2 1
     2    1   25 1
     3    1   26 1
     4    1   27 1
     5    2    3 1
     6    2    4 1
     7    2   12 1
     8    4    8 1
     9    4    5 2
    10    5    6 1
    11    6    7 2
    12    6    9 1
    13    7    8 1
    14    9   11 1
    15    9   10 1
    16    9   28 1
    17   10   11 1
    18   10   29 1
    19   10   30 1
    20   11   31 1
    21   11   32 1
    22   12   13 1
    23   12   14 1
    24   13   33 1
    25   13   34 1
    26   13   35 1
    27   14   15 1
    28   14   36 1
    29   14   37 1
    30   15   20 ar
    31   15   16 ar
    32   16   17 ar
    33   16   38 1
    34   17   18 ar
    35   17   39 1
    36   18   19 ar
    37   18   40 1
    38   19   20 ar
    39   19   41 1
    40   20   21 1
    41   21   22 1
    42   21   23 1
    43   21   24 1
@<TRIPOS>MOLECULE
ZINC63851448
   37    37     0     0     0
SMALL
USER_CHARGES

@<TRIPOS>ATOM
      1 C1         -0.0184    1.5028    0.0103 C.3       1 <0>        -0.1077
      2 C2          0.0021   -0.0041    0.0020 C.ar      1 <0>         0.1928
      3 C3          0.0059   -0.6989   -1.1975 C.ar      1 <0>        -0.2386
      4 C4          0.0249   -2.0845   -1.1608 C.ar      1 <0>         0.1958
      5 N1          0.0386   -2.6990    0.0103 N.ar      1 <0>        -0.5056
      6 C5          0.0345   -2.0049    1.1396 C.ar      1 <0>         0.2922
      7 N2          0.0220   -0.6794    1.1390 N.ar      1 <0>        -0.5389
      8 S1          0.0533   -2.8644    2.6776 S.3       1 <0>         0.0889
      9 C6          0.0411   -1.5421    3.9194 C.3       1 <0>        -0.1693
     10 C7          0.0558   -2.1484    5.2990 C.2       1 <0>         0.5415
     11 O1          0.0727   -3.3538    5.4314 O.2       1 <0>        -0.4965
     12 N3          0.0500   -1.3511    6.3856 N.am      1 <0>        -0.6039
     13 C8          0.0642   -1.9405    7.7267 C.3       1 <0>         0.1374
     14 C9          1.4898   -2.1234    8.1800 C.2       1 <0>        -0.1764
     15 C10         1.8887   -1.6019    9.3136 C.2       1 <0>        -0.1705
     16 C11         0.0295    0.1050    6.2256 C.3       1 <0>         0.0658
     17 C12        -1.4199    0.5923    6.1766 C.3       1 <0>         0.4325
     18 F1         -2.0693    0.2447    7.3660 F         1 <0>        -0.1773
     19 F2         -1.4395    1.9828    6.0238 F         1 <0>        -0.1752
     20 F3         -2.0764   -0.0049    5.0952 F         1 <0>        -0.1785
     21 C13         0.0292   -2.8812   -2.4401 C.3       1 <0>        -0.1083
     22 H1          1.0042    1.8801    0.0026 H         1 <0>         0.0877
     23 H2         -0.5455    1.8639   -0.8728 H         1 <0>         0.0838
     24 H3         -0.5286    1.8543    0.9071 H         1 <0>         0.0828
     25 H4         -0.0060   -0.1721   -2.1402 H         1 <0>         0.1493
     26 H5          0.9221   -0.9135    3.7894 H         1 <0>         0.1255
     27 H6         -0.8577   -0.9376    3.7977 H         1 <0>         0.1352
     28 H7         -0.4554   -1.2790    8.4199 H         1 <0>         0.0924
     29 H8         -0.4366   -2.9083    7.7036 H         1 <0>         0.1036
     30 H9          2.1826   -2.6843    7.5702 H         1 <0>         0.1140
     31 H10         2.9103   -1.7330    9.6384 H         1 <0>         0.1036
     32 H11         1.1959   -1.0410    9.9233 H         1 <0>         0.1001
     33 H12         0.5410    0.5703    7.0682 H         1 <0>         0.1346
     34 H13         0.5354    0.3758    5.2989 H         1 <0>         0.1293
     35 H14         1.0578   -3.0593   -2.7536 H         1 <0>         0.0888
     36 H15        -0.4709   -3.8356   -2.2754 H         1 <0>         0.0856
     37 H16        -0.4961   -2.3248   -3.2163 H         1 <0>         0.0838
@<TRIPOS>BOND
     1    1    2 1
     2    1   22 1
     3    1   23 1
     4    1   24 1
     5    2    7 ar
     6    2    3 ar
     7    3    4 ar
     8    3   25 1
     9    4    5 ar
    10    4   21 1
    11    5    6 ar
    12    6    7 ar
    13    6    8 1
    14    8    9 1
    15    9   10 1
    16    9   26 1
    17    9   27 1
    18   10   11 2
    19   10   12 am
    20   12   13 1
    21   12   16 1
    22   13   14 1
    23   13   28 1
    24   13   29 1
    25   14   15 2
    26   14   30 1
    27   15   31 1
    28   15   32 1
    29   16   17 1
    30   16   33 1
    31   16   34 1
    32   17   18 1
    33   17   19 1
    34   17   20 1
    35   21   35 1
    36   21   36 1
    37   21   37 1
@<TRIPOS>MOLECULE
ZINC66566131
   45    46     0     0     0
SMALL
USER_CHARGES

@<TRIPOS>ATOM
      1 C1         -1.8936    3.0022   -1.2865 C.3       1 <0>        -0.0771
      2 C2         -1.7975    1.6035   -0.7340 C.2       1 <0>         0.0808
      3 C3         -1.3930    0.5619   -1.5051 C.2       1 <0>        -0.1944
      4 S1         -1.4838   -0.7756   -0.3256 S.3       1 <0>         0.0950
      5 C4         -2.0168    0.1186    0.9970 C.2       1 <0>         0.0335
      6 N1         -2.0971    1.3363    0.5215 N.2       1 <0>        -0.5133
      7 C5         -0.9814    0.5404   -2.9547 C.3       1 <0>         0.1479
      8 N2          0.4659    0.7702   -3.0562 N.3       1 <0>        -0.5193
      9 C6          1.2186   -0.3431   -2.4627 C.3       1 <0>         0.0143
     10 C7          0.8671    0.9920   -4.4519 C.3       1 <0>         0.0385
     11 C8          2.2978    1.4635   -4.4944 C.2       1 <0>         0.5191
     12 O1          2.9219    1.6012   -3.4635 O.2       1 <0>        -0.5017
     13 N3          2.8839    1.7323   -5.6779 N.am      1 <0>        -0.5744
     14 C9          4.1771    2.2656   -5.7131 C.ar      1 <0>         0.1445
     15 C10         5.2783    1.4198   -5.7323 C.ar      1 <0>        -0.1084
     16 C11         6.5534    1.9493   -5.7670 C.ar      1 <0>        -0.1134
     17 C12         6.7342    3.3202   -5.7827 C.ar      1 <0>        -0.1149
     18 C13         5.6397    4.1651   -5.7633 C.ar      1 <0>        -0.1130
     19 C14         4.3618    3.6418   -5.7348 C.ar      1 <0>        -0.1093
     20 C15         2.1671    1.4660   -6.9275 C.3       1 <0>         0.1299
     21 C16         2.0936    2.7496   -7.7568 C.3       1 <0>        -0.1658
     22 C17         2.9082    0.3879   -7.7208 C.3       1 <0>        -0.1672
     23 H1         -0.9407    3.5133   -1.1494 H         1 <0>         0.0787
     24 H2         -2.1324    2.9576   -2.3491 H         1 <0>         0.0721
     25 H3         -2.6773    3.5476   -0.7606 H         1 <0>         0.0722
     26 H4         -2.2356   -0.2272    1.9965 H         1 <0>         0.2180
     27 H5         -1.2266   -0.4294   -3.3877 H         1 <0>         0.0543
     28 H6         -1.5125    1.3242   -3.4948 H         1 <0>         0.1017
     29 H7          0.9738   -1.2672   -2.9864 H         1 <0>         0.0248
     30 H8          2.2872   -0.1473   -2.5514 H         1 <0>         0.0896
     31 H9          0.9532   -0.4407   -1.4101 H         1 <0>         0.0706
     32 H10         0.7751    0.0597   -5.0090 H         1 <0>         0.0682
     33 H11         0.2220    1.7480   -4.8996 H         1 <0>         0.1088
     34 H12         5.1378    0.3490   -5.7197 H         1 <0>         0.1209
     35 H13         7.4103    1.2920   -5.7816 H         1 <0>         0.1259
     36 H14         7.7323    3.7318   -5.8099 H         1 <0>         0.1251
     37 H15         5.7842    5.2353   -5.7753 H         1 <0>         0.1264
     38 H16         3.5073    4.3022   -5.7248 H         1 <0>         0.1224
     39 H17         1.1581    1.1214   -6.7012 H         1 <0>         0.0954
     40 H18         3.0982    3.0438   -8.0608 H         1 <0>         0.0641
     41 H19         1.4823    2.5756   -8.6423 H         1 <0>         0.0718
     42 H20         1.6480    3.5440   -7.1581 H         1 <0>         0.0619
     43 H21         2.9036   -0.5453   -7.1577 H         1 <0>         0.0590
     44 H22         2.4119    0.2364   -8.6794 H         1 <0>         0.0722
     45 H23         3.9373    0.7047   -7.8907 H         1 <0>         0.0647
@<TRIPOS>BOND
     1    1    2 1
     2    1   23 1
     3    1   24 1
     4    1   25 1
     5    2    6 1
     6    2    3 2
     7    3    4 1
     8    3    7 1
     9    4    5 1
    10    5    6 2
    11    5   26 1
    12    7    8 1
    13    7   27 1
    14    7   28 1
    15    8    9 1
    16    8   10 1
    17    9   29 1
    18    9   30 1
    19    9   31 1
    20   10   11 1
    21   10   32 1
    22   10   33 1
    23   11   12 2
    24   11   13 am
    25   13   14 1
    26   13   20 1
    27   14   19 ar
    28   14   15 ar
    29   15   16 ar
    30   15   34 1
    31   16   17 ar
    32   16   35 1
    33   17   18 ar
    34   17   36 1
    35   18   19 ar
    36   18   37 1
    37   19   38 1
    38   20   21 1
    39   20   22 1
    40   20   39 1
    41   21   40 1
    42   21   41 1
    43   21   42 1
    44   22   43 1
    45   22   44 1
    46   22   45 1
@<TRIPOS>MOLECULE
ZINC12480777
   71    75     0     0     0
SMALL
USER_CHARGES
(2S)-2-[[2-(benzotriazol-1-yl)acetyl]-[2-(m-tolyl)ethyl]amino]-2-(3-methyl-2-thienyl)-N-[[(2S)-tetrahydrofuran-2-yl]methyl]acetamide
@<TRIPOS>ATOM
      1 C1         -0.5963   -8.0904   -7.8473 C.3       1 <0>        -0.1181
      2 C2         -0.3236   -7.3344   -6.5725 C.ar      1 <0>        -0.0811
      3 C3         -0.8945   -7.7532   -5.3849 C.ar      1 <0>        -0.1210
      4 C4         -0.6449   -7.0596   -4.2158 C.ar      1 <0>        -0.1117
      5 C5          0.1758   -5.9471   -4.2338 C.ar      1 <0>        -0.1196
      6 C6          0.7465   -5.5285   -5.4209 C.ar      1 <0>        -0.0809
      7 C7          0.4925   -6.2192   -6.5914 C.ar      1 <0>        -0.1169
      8 C8          1.6407   -4.3156   -5.4406 C.3       1 <0>        -0.0987
      9 C9          3.0881   -4.7450   -5.1930 C.3       1 <0>         0.1104
     10 N1          3.9397   -3.5571   -5.0937 N.am      1 <0>        -0.5970
     11 C10         4.0772   -2.8593   -3.8129 C.3       1 <0>         0.2269
     12 H1          3.5655   -3.4250   -3.0343 H         1 <0>         0.1317
     13 C11         3.4656   -1.4863   -3.9207 C.2       1 <0>        -0.1892
     14 C12         2.7175   -0.8115   -3.0139 C.2       1 <0>        -0.1035
     15 C13         2.2574    0.4526   -3.3320 C.2       1 <0>        -0.1610
     16 C14         2.5680    0.9800   -4.5415 C.2       1 <0>        -0.1938
     17 S1          3.5449   -0.3231   -5.2728 S.3       1 <0>         0.1281
     18 C15         2.3926   -1.4299   -1.6786 C.3       1 <0>        -0.1060
     19 C16         5.5378   -2.7327   -3.4641 C.2       1 <0>         0.5151
     20 O1          6.3773   -3.2454   -4.1735 O.2       1 <0>        -0.5079
     21 N2          5.9111   -2.0496   -2.3639 N.am      1 <0>        -0.7192
     22 C17         7.3310   -1.9265   -2.0248 C.3       1 <0>         0.1261
     23 C18         7.4795   -1.1094   -0.7398 C.3       1 <0>         0.0649
     24 H2          6.9633   -0.1553   -0.8457 H         1 <0>         0.0751
     25 C19         8.9720   -0.8674   -0.4423 C.3       1 <0>        -0.1496
     26 C20         9.1844   -1.4861    0.9609 C.3       1 <0>        -0.1555
     27 C21         7.7411   -1.5140    1.5253 C.3       1 <0>         0.0461
     28 O2          6.9349   -1.8391    0.3725 O.3       1 <0>        -0.3718
     29 C22         4.5967   -3.1061   -6.1807 C.2       1 <0>         0.5046
     30 O3          5.3017   -2.1227   -6.0985 O.2       1 <0>        -0.4750
     31 C23         4.4553   -3.8238   -7.4983 C.3       1 <0>         0.1204
     32 N3          5.2617   -3.1430   -8.5143 N.pl3     1 <0>        -0.3820
     33 C24         4.8524   -2.1262   -9.3438 C.ar      1 <0>         0.0984
     34 C25         3.6550   -1.4389   -9.5121 C.ar      1 <0>        -0.1210
     35 C26         3.5656   -0.4496  -10.4508 C.ar      1 <0>        -0.0658
     36 C27         4.6612   -0.1229  -11.2397 C.ar      1 <0>        -0.1359
     37 C28         5.8490   -0.7767  -11.0890 C.ar      1 <0>        -0.0334
     38 C29         5.9656   -1.7984  -10.1371 C.ar      1 <0>        -0.0155
     39 N4          6.9785   -2.6115   -9.7767 N.2       1 <0>        -0.2158
     40 N5          6.6018   -3.4044   -8.8363 N.2       1 <0>         0.0099
     41 H3         -1.4773   -7.6737   -8.3355 H         1 <0>         0.0715
     42 H4          0.2629   -8.0031   -8.5123 H         1 <0>         0.0669
     43 H5         -0.7717   -9.1411   -7.6163 H         1 <0>         0.0675
     44 H6         -1.5359   -8.6220   -5.3709 H         1 <0>         0.1216
     45 H7         -1.0911   -7.3865   -3.2882 H         1 <0>         0.1229
     46 H8          0.3706   -5.4049   -3.3203 H         1 <0>         0.1210
     47 H9          0.9349   -5.8895   -7.5198 H         1 <0>         0.1204
     48 H10         1.3289   -3.6217   -4.6600 H         1 <0>         0.0829
     49 H11         1.5679   -3.8263   -6.4119 H         1 <0>         0.0753
     50 H12         3.4288   -5.3681   -6.0200 H         1 <0>         0.0891
     51 H13         3.1451   -5.3116   -4.2636 H         1 <0>         0.0905
     52 H14         1.6592    1.0115   -2.6277 H         1 <0>         0.1312
     53 H15         2.2979    1.9409   -4.9540 H         1 <0>         0.1817
     54 H16         3.1678   -1.1678   -0.9585 H         1 <0>         0.0713
     55 H17         1.4305   -1.0553   -1.3291 H         1 <0>         0.0717
     56 H18         2.3446   -2.5139   -1.7823 H         1 <0>         0.0643
     57 H19         5.2397   -1.6395   -1.7966 H         1 <0>         0.4021
     58 H20         7.8564   -1.4245   -2.8373 H         1 <0>         0.0811
     59 H21         7.7563   -2.9189   -1.8756 H         1 <0>         0.0765
     60 H22         9.1894    0.2005   -0.4252 H         1 <0>         0.0814
     61 H23         9.5950   -1.3728   -1.1803 H         1 <0>         0.0836
     62 H24         9.5915   -2.4943    0.8839 H         1 <0>         0.0792
     63 H25         9.8287   -0.8536    1.5715 H         1 <0>         0.0829
     64 H26         7.6433   -2.2832    2.2913 H         1 <0>         0.0950
     65 H27         7.4657   -0.5373    1.9232 H         1 <0>         0.0624
     66 H28         4.7995   -4.8524   -7.3905 H         1 <0>         0.1324
     67 H29         3.4087   -3.8210   -7.8031 H         1 <0>         0.1240
     68 H30         2.7982   -1.6865   -8.9030 H         1 <0>         0.1269
     69 H31         2.6350    0.0830  -10.5801 H         1 <0>         0.1367
     70 H32         4.5735    0.6620  -11.9763 H         1 <0>         0.1369
     71 H33         6.6934   -0.5156  -11.7096 H         1 <0>         0.1384
@<TRIPOS>BOND
     1    1    2 1
     2    1   41 1
     3    1   42 1
     4    1   43 1
     5    2    7 ar
     6    2    3 ar
     7    3    4 ar
     8    3   44 1
     9    4    5 ar
    10    4   45 1
    11    5    6 ar
    12    5   46 1
    13    6    7 ar
    14    6    8 1
    15    7   47 1
    16    8    9 1
    17    8   48 1
    18    8   49 1
    19    9   10 1
    20    9   50 1
    21    9   51 1
    22   10   11 1
    23   10   29 am
    24   11   12 1
    25   11   13 1
    26   11   19 1
    27   13   17 1
    28   13   14 2
    29   14   15 1
    30   14   18 1
    31   15   16 2
    32   15   52 1
    33   16   17 1
    34   16   53 1
    35   18   54 1
    36   18   55 1
    37   18   56 1
    38   19   20 2
    39   19   21 am
    40   21   22 1
    41   21   57 1
    42   22   23 1
    43   22   58 1
    44   22   59 1
    45   23   24 1
    46   23   28 1
    47   23   25 1
    48   25   26 1
    49   25   60 1
    50   25   61 1
    51   26   27 1
    52   26   62 1
    53   26   63 1
    54   27   28 1
    55   27   64 1
    56   27   65 1
    57   29   30 2
    58   29   31 1
    59   31   32 1
    60   31   66 1
    61   31   67 1
    62   32   40 1
    63   32   33 1
    64   33   38 ar
    65   33   34 ar
    66   34   35 ar
    67   34   68 1
    68   35   36 ar
    69   35   69 1
    70   36   37 ar
    71   36   70 1
    72   37   38 ar
    73   37   71 1
    74   38   39 1
    75   39   40 2
@<TRIPOS>MOLECULE
ZINC20059203
   70    73     0     0     0
SMALL
USER_CHARGES
(3S)-4'-(4-allyloxybenzoyl)-1'-(3-dimethylaminopropyl)-3'-hydroxy-1-propyl-spiro[indoline-3,5'-pyrrole]-2,2'-dione
@<TRIPOS>ATOM
      1 C1          4.0454    0.1584    3.1353 C.3       1 <0>        -0.1475
      2 C2          2.9897   -0.2776    2.1173 C.3       1 <0>        -0.1463
      3 C3          3.2192   -1.7425    1.7401 C.3       1 <0>         0.1131
      4 N1          2.1410   -2.1941    0.8571 N.am      1 <0>        -0.5550
      5 C4          2.2219   -2.1885   -0.5367 C.ar      1 <0>         0.1389
      6 C5          3.2506   -1.7900   -1.3876 C.ar      1 <0>        -0.1443
      7 C6          3.0930   -1.8786   -2.7551 C.ar      1 <0>        -0.0854
      8 C7          1.9144   -2.3629   -3.2927 C.ar      1 <0>        -0.1392
      9 C8          0.8880   -2.7613   -2.4546 C.ar      1 <0>        -0.0365
     10 C9          1.0416   -2.6744   -1.0890 C.ar      1 <0>        -0.1245
     11 C10         0.1474   -3.0130    0.0737 C.3       1 <0>         0.2725
     12 C11         0.9576   -2.6619    1.2955 C.2       1 <0>         0.5320
     13 O1          0.6100   -2.7790    2.4516 O.2       1 <0>        -0.4875
     14 C12        -1.1338   -2.2258    0.0257 C.2       1 <0>        -0.4883
     15 C13        -2.1408   -3.1328    0.0015 C.2       1 <0>         0.2650
     16 C14        -1.5668   -4.4956    0.0231 C.2       1 <0>         0.5210
     17 O2         -2.2123   -5.5248    0.0062 O.2       1 <0>        -0.5196
     18 N2         -0.2217   -4.4265    0.0692 N.am      1 <0>        -0.5971
     19 C15         0.7026   -5.5625    0.1074 C.3       1 <0>         0.1396
     20 C16         0.9750   -5.9497    1.5623 C.3       1 <0>        -0.1766
     21 C17         1.9403   -7.1361    1.6021 C.3       1 <0>        -0.0026
     22 N3          2.2018   -7.5079    2.9991 N.4       1 <0>        -0.4020
     23 C18         0.9866   -8.0243    3.6428 C.3       1 <0>        -0.0515
     24 C19         3.2989   -8.4807    3.0884 C.3       1 <0>        -0.0446
     25 O3         -3.4608   -2.8383   -0.0389 O.3       1 <0>        -0.6355
     26 C20        -1.2670   -0.7656    0.0138 C.2       1 <0>         0.5143
     27 O4         -1.0429   -0.1424   -1.0072 O.2       1 <0>        -0.4743
     28 C21        -1.6730   -0.0515    1.2402 C.ar      1 <0>        -0.1847
     29 C22        -1.6854    1.3465    1.2659 C.ar      1 <0>        -0.0308
     30 C23        -2.0651    2.0085    2.4116 C.ar      1 <0>        -0.2298
     31 C24        -2.4355    1.2890    3.5424 C.ar      1 <0>         0.1491
     32 C25        -2.4249   -0.1013    3.5209 C.ar      1 <0>        -0.1704
     33 C26        -2.0466   -0.7711    2.3794 C.ar      1 <0>         0.0012
     34 O5         -2.8091    1.9455    4.6696 O.3       1 <0>        -0.3103
     35 C27        -2.7972    3.3737    4.6228 C.3       1 <0>         0.0836
     36 C28        -3.2381    3.9236    5.9548 C.2       1 <0>        -0.1579
     37 C29        -2.5779    4.9114    6.5066 C.2       1 <0>        -0.1765
     38 H1          3.8803    1.2116    3.4064 H         1 <0>         0.0612
     39 H2          5.0474    0.0457    2.6956 H         1 <0>         0.0554
     40 H3          3.9674   -0.4686    4.0357 H         1 <0>         0.0550
     41 H4          1.9877   -0.1649    2.5570 H         1 <0>         0.0717
     42 H5          3.0676    0.3494    1.2169 H         1 <0>         0.0694
     43 H6          4.1839   -1.8406    1.2207 H         1 <0>         0.0841
     44 H7          3.2292   -2.3586    2.6513 H         1 <0>         0.0812
     45 H8          4.1739   -1.4104   -0.9755 H         1 <0>         0.1202
     46 H9          3.8943   -1.5684   -3.4094 H         1 <0>         0.1277
     47 H10         1.7955   -2.4302   -4.3640 H         1 <0>         0.1280
     48 H11        -0.0335   -3.1401   -2.8714 H         1 <0>         0.1263
     49 H12         0.2555   -6.4169   -0.4219 H         1 <0>         0.0946
     50 H13         1.6478   -5.2827   -0.3807 H         1 <0>         0.0849
     51 H14         1.4221   -5.0953    2.0915 H         1 <0>         0.0901
     52 H15         0.0298   -6.2295    2.0504 H         1 <0>         0.0961
     53 H16         1.4932   -7.9905    1.0728 H         1 <0>         0.1301
     54 H17         2.8855   -6.8563    1.1140 H         1 <0>         0.1307
     55 H18         1.2104   -8.2944    4.6854 H         1 <0>         0.1229
     56 H19         0.6346   -8.9145    3.1009 H         1 <0>         0.1194
     57 H20         0.2048   -7.2507    3.6241 H         1 <0>         0.1278
     58 H21         3.4732   -8.7410    4.1428 H         1 <0>         0.1223
     59 H22         4.2135   -8.0419    2.6630 H         1 <0>         0.1218
     60 H23         3.0315   -9.3876    2.5262 H         1 <0>         0.1179
     61 H24        -1.3933    1.9061    0.3896 H         1 <0>         0.1307
     62 H25        -2.0750    3.0883    2.4323 H         1 <0>         0.1275
     63 H26        -2.7136   -0.6564    4.4012 H         1 <0>         0.1297
     64 H27        -2.0380   -1.8510    2.3638 H         1 <0>         0.1387
     65 H28        -1.7788    3.7248    4.4001 H         1 <0>         0.0682
     66 H29        -3.4846    3.7206    3.8372 H         1 <0>         0.0747
     67 H30        -4.1143    3.4955    6.4637 H         1 <0>         0.1227
     68 H31        -2.8997    5.3128    7.4789 H         1 <0>         0.1104
     69 H32        -1.7017    5.3395    5.9977 H         1 <0>         0.1014
     70 H33         2.5102   -6.6002    3.5385 H         1 <0>         0.4459
@<TRIPOS>BOND
     1    1    2 1
     2    1   38 1
     3    1   39 1
     4    1   40 1
     5    2    3 1
     6    2   41 1
     7    2   42 1
     8    3    4 1
     9    3   43 1
    10    3   44 1
    11    4   12 am
    12    4    5 1
    13    5   10 ar
    14    5    6 ar
    15    6    7 ar
    16    6   45 1
    17    7    8 ar
    18    7   46 1
    19    8    9 ar
    20    8   47 1
    21    9   10 ar
    22    9   48 1
    23   10   11 1
    24   11   18 1
    25   11   12 1
    26   11   14 1
    27   12   13 2
    28   14   15 2
    29   14   26 1
    30   15   16 1
    31   15   25 1
    32   16   17 2
    33   16   18 am
    34   18   19 1
    35   19   20 1
    36   19   49 1
    37   19   50 1
    38   20   21 1
    39   20   51 1
    40   20   52 1
    41   21   22 1
    42   21   53 1
    43   21   54 1
    44   22   23 1
    45   22   24 1
    46   22   70 1
    47   23   55 1
    48   23   56 1
    49   23   57 1
    50   24   58 1
    51   24   59 1
    52   24   60 1
    53   26   27 2
    54   26   28 1
    55   28   33 ar
    56   28   29 ar
    57   29   30 ar
    58   29   61 1
    59   30   31 ar
    60   30   62 1
    61   31   32 ar
    62   31   34 1
    63   32   33 ar
    64   32   63 1
    65   33   64 1
    66   34   35 1
    67   35   36 1
    68   35   65 1
    69   35   66 1
    70   36   37 2
    71   36   67 1
    72   37   68 1
    73   37   69 1
@<TRIPOS>MOLECULE
ZINC26641584
   66    69     0     0     0
SMALL
USER_CHARGES
(6E)-2-ethyl-5-imino-6-[[3-methoxy-4-[2-(4-sec-butylphenoxy)ethoxy]phenyl]methylene]-[1,3,4]thiadiazolo[3,2-a]pyrimidin-7-one
@<TRIPOS>ATOM
      1 C1         -8.3491    2.5499   14.5398 C.3       1 <0>        -0.1493
      2 C2         -8.6251    3.4081   15.7760 C.3       1 <0>        -0.0333
      3 C3         -8.4739    4.8647   15.4204 C.2       1 <0>         0.1310
      4 N1         -8.1620    5.3979   14.2742 N.2       1 <0>        -0.2593
      5 N2         -8.0741    6.7652   14.1208 N.pl3     1 <0>        -0.4307
      6 C4         -7.7921    7.4421   12.9146 C.2       1 <0>         0.4480
      7 N3         -7.9724    6.9101   11.7352 N.2       1 <0>        -0.6217
      8 C5         -7.2691    8.8226   13.1176 C.2       1 <0>        -0.2219
      9 C6         -6.3572    9.3873   12.2543 C.2       1 <0>         0.0829
     10 C7         -5.7435    8.5737   11.2024 C.ar      1 <0>        -0.0876
     11 C8         -5.3857    7.2428   11.4610 C.ar      1 <0>        -0.0570
     12 C9         -4.8087    6.4813   10.4703 C.ar      1 <0>        -0.1792
     13 C10        -4.5799    7.0273    9.2131 C.ar      1 <0>         0.1292
     14 C11        -4.9280    8.3524    8.9486 C.ar      1 <0>         0.0976
     15 C12        -5.5114    9.1230    9.9333 C.ar      1 <0>        -0.1334
     16 O1         -4.6969    8.8830    7.7180 O.3       1 <0>        -0.3030
     17 C13        -5.0782   10.2454    7.5169 C.3       1 <0>         0.0206
     18 O2         -4.0104    6.2704    8.2404 O.3       1 <0>        -0.2908
     19 C14        -3.6733    4.9239    8.5800 C.3       1 <0>         0.0569
     20 C15        -3.0473    4.2334    7.3667 C.3       1 <0>         0.0605
     21 O3         -1.8058    4.8649    7.0472 O.3       1 <0>        -0.3071
     22 C16        -1.1163    4.3687    5.9864 C.ar      1 <0>         0.1261
     23 C17         0.0967    4.9339    5.6203 C.ar      1 <0>        -0.1474
     24 C18         0.7954    4.4280    4.5414 C.ar      1 <0>        -0.0774
     25 C19         0.2868    3.3595    3.8263 C.ar      1 <0>        -0.1137
     26 C20        -0.9246    2.7980    4.1857 C.ar      1 <0>        -0.0741
     27 C21        -1.6243    3.2964    5.2676 C.ar      1 <0>        -0.2073
     28 C22         1.0509    2.8099    2.6494 C.3       1 <0>        -0.0491
     29 H1          1.9762    3.3921    2.5278 H         1 <0>         0.0775
     30 C23         0.1945    2.9245    1.3867 C.3       1 <0>        -0.1477
     31 C24         1.3908    1.3399    2.9035 C.3       1 <0>        -0.1162
     32 C25         2.2722    0.8166    1.7677 C.3       1 <0>        -0.1568
     33 C26        -7.7796    9.5538   14.3041 C.2       1 <0>         0.5510
     34 O4         -7.8054   10.7738   14.3279 O.2       1 <0>        -0.4462
     35 N4         -8.2181    8.8340   15.3523 N.2       1 <0>        -0.5420
     36 C27        -8.3003    7.5314   15.2438 C.2       1 <0>         0.3968
     37 S1         -8.6770    6.3014   16.4643 S.3       1 <0>         0.0885
     38 H2         -8.4595    1.4867   14.7995 H         1 <0>         0.0772
     39 H3         -7.3246    2.7363   14.1853 H         1 <0>         0.0654
     40 H4         -9.0648    2.8097   13.7459 H         1 <0>         0.0657
     41 H5         -9.6496    3.2217   16.1305 H         1 <0>         0.1145
     42 H6         -7.9095    3.1483   16.5700 H         1 <0>         0.1140
     43 H7         -8.3622    5.8852   11.6479 H         1 <0>         0.3705
     44 H8         -6.0896   10.4495   12.3546 H         1 <0>         0.1637
     45 H9         -5.5623    6.8157   12.4371 H         1 <0>         0.1162
     46 H10        -4.5335    5.4564   10.6704 H         1 <0>         0.1362
     47 H11        -5.7846   10.1476    9.7284 H         1 <0>         0.1428
     48 H12        -4.8372   10.5453    6.4864 H         1 <0>         0.1044
     49 H13        -4.5311   10.8873    8.2230 H         1 <0>         0.0575
     50 H14        -6.1598   10.3523    7.6865 H         1 <0>         0.0571
     51 H15        -2.9546    4.9247    9.4127 H         1 <0>         0.0771
     52 H16        -4.5826    4.3830    8.8810 H         1 <0>         0.0872
     53 H17        -2.8701    3.1730    7.5993 H         1 <0>         0.0868
     54 H18        -3.7300    4.3113    6.5077 H         1 <0>         0.0769
     55 H19         0.4941    5.7690    6.1781 H         1 <0>         0.1301
     56 H20         1.7397    4.8676    4.2560 H         1 <0>         0.1282
     57 H21        -1.3221    1.9666    3.6226 H         1 <0>         0.1232
     58 H22        -2.5685    2.8549    5.5504 H         1 <0>         0.1258
     59 H23         0.7523    2.5233    0.5277 H         1 <0>         0.0613
     60 H24        -0.0498    3.9814    1.2040 H         1 <0>         0.0559
     61 H25        -0.7347    2.3512    1.5206 H         1 <0>         0.0558
     62 H26         1.9297    1.2479    3.8580 H         1 <0>         0.0627
     63 H27         0.4626    0.7513    2.9483 H         1 <0>         0.0626
     64 H28         2.5166   -0.2402    1.9504 H         1 <0>         0.0545
     65 H29         3.2004    1.4052    1.7230 H         1 <0>         0.0546
     66 H30         1.7333    0.9087    0.8132 H         1 <0>         0.0578
@<TRIPOS>BOND
     1    1    2 1
     2    1   38 1
     3    1   39 1
     4    1   40 1
     5    2    3 1
     6    2   41 1
     7    2   42 1
     8    3   37 1
     9    3    4 2
    10    4    5 1
    11    5   36 1
    12    5    6 1
    13    6    7 2
    14    6    8 1
    15    7   43 1
    16    8    9 2
    17    8   33 1
    18    9   10 1
    19    9   44 1
    20   10   15 ar
    21   10   11 ar
    22   11   12 ar
    23   11   45 1
    24   12   13 ar
    25   12   46 1
    26   13   14 ar
    27   13   18 1
    28   14   15 ar
    29   14   16 1
    30   15   47 1
    31   16   17 1
    32   17   48 1
    33   17   49 1
    34   17   50 1
    35   18   19 1
    36   19   20 1
    37   19   51 1
    38   19   52 1
    39   20   21 1
    40   20   53 1
    41   20   54 1
    42   21   22 1
    43   22   27 ar
    44   22   23 ar
    45   23   24 ar
    46   23   55 1
    47   24   25 ar
    48   24   56 1
    49   25   26 ar
    50   25   28 1
    51   26   27 ar
    52   26   57 1
    53   27   58 1
    54   28   29 1
    55   28   30 1
    56   28   31 1
    57   30   59 1
    58   30   60 1
    59   30   61 1
    60   31   32 1
    61   31   62 1
    62   31   63 1
    63   32   64 1
    64   32   65 1
    65   32   66 1
    66   33   34 2
    67   33   35 1
    68   35   36 2
    69   36   37 1
@<TRIPOS>MOLECULE
ZINC37511790
   58    61     0     0     0
SMALL
USER_CHARGES

@<TRIPOS>ATOM
      1 C1         -0.0173    1.4248    0.0099 C.3       1 <0>         0.0306
      2 O1          0.0021   -0.0041    0.0020 O.3       1 <0>        -0.3903
      3 C2          0.6518   -0.5703   -1.1379 C.3       1 <0>         0.0462
      4 C3          0.6131   -2.0967   -1.0411 C.3       1 <0>         0.1208
      5 N1         -0.7759   -2.5559   -1.1188 N.am      1 <0>        -0.7138
      6 C4         -1.0549   -3.8729   -1.0544 C.2       1 <0>         0.6035
      7 O2         -0.1530   -4.6806   -0.9316 O.2       1 <0>        -0.5165
      8 C5         -2.4454   -4.3326   -1.1322 C.2       1 <0>        -0.0675
      9 C6         -2.8659   -5.6304   -1.0745 C.2       1 <0>        -0.1155
     10 C7         -4.2649   -5.6067   -1.1861 C.2       1 <0>        -0.1951
     11 C8         -4.6324   -4.3118   -1.3055 C.2       1 <0>        -0.0133
     12 O3         -3.5337   -3.5468   -1.2676 O.3       1 <0>        -0.1492
     13 C9         -6.0460   -3.8108   -1.4524 C.3       1 <0>         0.1855
     14 N2         -6.6129   -3.5525   -0.1264 N.am      1 <0>        -0.5493
     15 C10        -7.2912   -4.5652    0.5679 C.ar      1 <0>         0.0865
     16 C11        -7.1691   -5.8845    0.1823 C.ar      1 <0>        -0.0662
     17 C12        -7.8558   -6.8800    0.8890 C.ar      1 <0>        -0.1582
     18 C13        -8.6604   -6.5304    1.9804 C.ar      1 <0>        -0.0612
     19 C14        -8.7758   -5.2111    2.3585 C.ar      1 <0>        -0.1151
     20 C15        -8.0952   -4.2243    1.6591 C.ar      1 <0>         0.1194
     21 O4         -8.2012   -2.9213    2.0270 O.3       1 <0>        -0.2946
     22 C16        -7.0474   -2.1007    1.8279 C.3       1 <0>         0.0519
     23 C17        -6.4857   -2.3371    0.4492 C.2       1 <0>         0.4892
     24 O5         -5.9254   -1.4386   -0.1424 O.2       1 <0>        -0.4883
     25 C18        -7.7326   -8.2869    0.4859 C.2       1 <0>         0.4011
     26 O6         -7.0355   -8.5880   -0.4600 O.2       1 <0>        -0.4188
     27 C19        -8.4723   -9.3565    1.2475 C.3       1 <0>         0.0103
     28 O7         -8.1938  -10.6327    0.6681 O.3       1 <0>        -0.2864
     29 C20        -8.7875  -11.7133    1.2408 C.ar      1 <0>         0.1503
     30 C21        -9.6252  -11.5468    2.3340 C.ar      1 <0>        -0.1926
     31 C22       -10.2282  -12.6451    2.9163 C.ar      1 <0>        -0.0812
     32 C23        -9.9974  -13.9123    2.4098 C.ar      1 <0>         0.0316
     33 C24        -9.1606  -14.0813    1.3172 C.ar      1 <0>         0.1130
     34 C25        -8.5608  -12.9820    0.7290 C.ar      1 <0>        -0.1584
     35 F1         -8.9350  -15.3187    0.8239 F         1 <0>        -0.1192
     36 F2        -10.5874  -14.9853    2.9805 F         1 <0>        -0.1273
     37 H1          1.0053    1.8021    0.0021 H         1 <0>         0.0440
     38 H2         -0.5445    1.7859   -0.8732 H         1 <0>         0.0434
     39 H3         -0.5275    1.7763    0.9067 H         1 <0>         0.0885
     40 H4          0.1385   -0.2506   -2.0447 H         1 <0>         0.0592
     41 H5          1.6883   -0.2344   -1.1694 H         1 <0>         0.0718
     42 H6          1.1847   -2.5275   -1.8631 H         1 <0>         0.0898
     43 H7          1.0473   -2.4117   -0.0922 H         1 <0>         0.0825
     44 H8         -1.4948   -1.9121   -1.2167 H         1 <0>         0.4100
     45 H9         -2.2427   -6.5055   -0.9643 H         1 <0>         0.1653
     46 H10        -4.9236   -6.4624   -1.1783 H         1 <0>         0.1631
     47 H11        -6.0461   -2.8885   -2.0335 H         1 <0>         0.1194
     48 H12        -6.6467   -4.5627   -1.9642 H         1 <0>         0.1261
     49 H13        -6.5473   -6.1481   -0.6604 H         1 <0>         0.1489
     50 H14        -9.1915   -7.2963    2.5261 H         1 <0>         0.1456
     51 H15        -9.3969   -4.9441    3.2008 H         1 <0>         0.1526
     52 H16        -7.3254   -1.0520    1.9334 H         1 <0>         0.1536
     53 H17        -6.2912   -2.3515    2.5718 H         1 <0>         0.1058
     54 H18        -8.1483   -9.3514    2.2882 H         1 <0>         0.1061
     55 H19        -9.5436   -9.1616    1.1995 H         1 <0>         0.1062
     56 H20        -9.8057  -10.5585    2.7303 H         1 <0>         0.1467
     57 H21       -10.8799  -12.5148    3.7676 H         1 <0>         0.1525
     58 H22        -7.9124  -13.1123   -0.1248 H         1 <0>         0.1572
@<TRIPOS>BOND
     1    1    2 1
     2    1   37 1
     3    1   38 1
     4    1   39 1
     5    2    3 1
     6    3    4 1
     7    3   40 1
     8    3   41 1
     9    4    5 1
    10    4   42 1
    11    4   43 1
    12    5    6 am
    13    5   44 1
    14    6    7 2
    15    6    8 1
    16    8   12 1
    17    8    9 2
    18    9   10 1
    19    9   45 1
    20   10   11 2
    21   10   46 1
    22   11   12 1
    23   11   13 1
    24   13   14 1
    25   13   47 1
    26   13   48 1
    27   14   23 am
    28   14   15 1
    29   15   20 ar
    30   15   16 ar
    31   16   17 ar
    32   16   49 1
    33   17   18 ar
    34   17   25 1
    35   18   19 ar
    36   18   50 1
    37   19   20 ar
    38   19   51 1
    39   20   21 1
    40   21   22 1
    41   22   23 1
    42   22   52 1
    43   22   53 1
    44   23   24 2
    45   25   26 2
    46   25   27 1
    47   27   28 1
    48   27   54 1
    49   27   55 1
    50   28   29 1
    51   29   34 ar
    52   29   30 ar
    53   30   31 ar
    54   30   56 1
    55   31   32 ar
    56   31   57 1
    57   32   33 ar
    58   32   36 1
    59   33   34 ar
    60   33   35 1
    61   34   58 1
@<TRIPOS>MOLECULE
ZINC36604000
   70    72     0     0     0
SMALL
USER_CHARGES

@<TRIPOS>ATOM
      1 C1          3.0882   -5.1237   -2.8330 C.3       1 <0>        -0.1531
      2 C2          1.9064   -5.6063   -1.9896 C.3       1 <0>        -0.1239
      3 C3          0.8712   -4.4856   -1.8737 C.3       1 <0>        -0.1044
      4 C4         -0.3106   -4.9682   -1.0303 C.3       1 <0>        -0.1414
      5 C5         -1.3302   -3.8644   -0.9162 C.2       1 <0>         0.5294
      6 O1         -1.1313   -2.7969   -1.4563 O.2       1 <0>        -0.5224
      7 N1         -2.4632   -4.0636   -0.2139 N.am      1 <0>        -0.5960
      8 C6         -2.7035   -5.3531    0.4384 C.3       1 <0>         0.1839
      9 C7         -1.9936   -5.3838    1.7674 C.2       1 <0>        -0.0280
     10 C8         -2.4912   -5.8814    2.9138 C.2       1 <0>        -0.1901
     11 C9         -1.4960   -5.7060    3.9025 C.2       1 <0>        -0.2112
     12 C10        -0.4498   -5.1116    3.3013 C.2       1 <0>        -0.0002
     13 O2         -0.7546   -4.9241    2.0068 O.3       1 <0>        -0.1606
     14 C11         0.8467   -4.7265    3.9661 C.3       1 <0>        -0.0758
     15 C12        -3.4544   -2.9906   -0.1030 C.3       1 <0>         0.1740
     16 H1         -3.0243   -2.0591   -0.4710 H         1 <0>         0.1466
     17 C13        -4.6688   -3.3417   -0.9234 C.ar      1 <0>        -0.1140
     18 C14        -4.8679   -4.6444   -1.3408 C.ar      1 <0>        -0.1078
     19 C15        -5.9818   -4.9665   -2.0933 C.ar      1 <0>        -0.1105
     20 C16        -6.8969   -3.9860   -2.4280 C.ar      1 <0>        -0.0773
     21 C17        -6.6983   -2.6835   -2.0098 C.ar      1 <0>        -0.1075
     22 C18        -5.5866   -2.3622   -1.2537 C.ar      1 <0>        -0.1196
     23 C19        -8.1108   -4.3370   -3.2492 C.3       1 <0>        -0.1193
     24 C20        -3.8544   -2.8234    1.3403 C.2       1 <0>         0.5073
     25 O3         -3.0190   -2.9113    2.2151 O.2       1 <0>        -0.4831
     26 N2         -5.1405   -2.5764    1.6589 N.am      1 <0>        -0.7046
     27 C21        -5.5293   -2.4139    3.0620 C.3       1 <0>        -0.3594
     28 S1         -5.5373   -0.6504    3.4869 S.o2      1 <0>         2.4679
     29 O4         -5.9738   -0.4719    4.8274 O.2       1 <0>        -0.9318
     30 O5         -4.3455   -0.0301    3.0244 O.2       1 <0>        -0.9181
     31 C22        -6.8195    0.0473    2.5000 C.ar      1 <0>        -0.6651
     32 C23        -6.5341    0.5301    1.2365 C.ar      1 <0>        -0.0190
     33 C24        -7.5399    1.0774    0.4622 C.ar      1 <0>        -0.1399
     34 C25        -8.8313    1.1416    0.9513 C.ar      1 <0>        -0.0266
     35 C26        -9.1169    0.6580    2.2144 C.ar      1 <0>        -0.1398
     36 C27        -8.1118    0.1068    2.9870 C.ar      1 <0>        -0.0194
     37 C28        -9.9277    1.7393    0.1075 C.3       1 <0>        -0.1269
     38 H2          3.8257   -5.9220   -2.9156 H         1 <0>         0.0545
     39 H3          2.7367   -4.8494   -3.8277 H         1 <0>         0.0546
     40 H4          3.5441   -4.2557   -2.3567 H         1 <0>         0.0550
     41 H5          1.4505   -6.4742   -2.4659 H         1 <0>         0.0613
     42 H6          2.2579   -5.8805   -0.9949 H         1 <0>         0.0621
     43 H7          1.3271   -3.6177   -1.3974 H         1 <0>         0.0708
     44 H8          0.5197   -4.2114   -2.8684 H         1 <0>         0.0697
     45 H9         -0.7665   -5.8362   -1.5067 H         1 <0>         0.0932
     46 H10         0.0409   -5.2424   -0.0356 H         1 <0>         0.1040
     47 H11        -3.7739   -5.4872    0.5951 H         1 <0>         0.1134
     48 H12        -2.3255   -6.1563   -0.1941 H         1 <0>         0.1052
     49 H13        -3.4645   -6.3286    3.0524 H         1 <0>         0.1409
     50 H14        -1.5631   -5.9936    4.9414 H         1 <0>         0.1441
     51 H15         1.5509   -5.5556    3.8966 H         1 <0>         0.0801
     52 H16         1.2648   -3.8519    3.4678 H         1 <0>         0.0758
     53 H17         0.6620   -4.4936    5.0148 H         1 <0>         0.0876
     54 H18        -4.1529   -5.4105   -1.0793 H         1 <0>         0.1294
     55 H19        -6.1369   -5.9842   -2.4200 H         1 <0>         0.1270
     56 H20        -7.4131   -1.9174   -2.2716 H         1 <0>         0.1284
     57 H21        -5.4334   -1.3453   -0.9238 H         1 <0>         0.1277
     58 H22        -8.9290   -4.6182   -2.5863 H         1 <0>         0.0733
     59 H23        -8.4071   -3.4747   -3.8465 H         1 <0>         0.0689
     60 H24        -7.8742   -5.1719   -3.9089 H         1 <0>         0.0689
     61 H25        -5.8086   -2.5061    0.9592 H         1 <0>         0.4132
     62 H26        -6.5259   -2.8286    3.2132 H         1 <0>         0.1452
     63 H27        -4.8171   -2.9380    3.6994 H         1 <0>         0.1567
     64 H28        -5.5251    0.4799    0.8545 H         1 <0>         0.1389
     65 H29        -7.3168    1.4553   -0.5246 H         1 <0>         0.1341
     66 H30       -10.1257    0.7085    2.5966 H         1 <0>         0.1340
     67 H31        -8.3357   -0.2744    3.9723 H         1 <0>         0.1418
     68 H32       -10.3893    0.9573   -0.4954 H         1 <0>         0.0804
     69 H33       -10.6795    2.1903    0.7551 H         1 <0>         0.0737
     70 H34        -9.5071    2.5024   -0.5473 H         1 <0>         0.0739
@<TRIPOS>BOND
     1    1    2 1
     2    1   38 1
     3    1   39 1
     4    1   40 1
     5    2    3 1
     6    2   41 1
     7    2   42 1
     8    3    4 1
     9    3   43 1
    10    3   44 1
    11    4    5 1
    12    4   45 1
    13    4   46 1
    14    5    6 2
    15    5    7 am
    16    7    8 1
    17    7   15 1
    18    8    9 1
    19    8   47 1
    20    8   48 1
    21    9   13 1
    22    9   10 2
    23   10   11 1
    24   10   49 1
    25   11   12 2
    26   11   50 1
    27   12   13 1
    28   12   14 1
    29   14   51 1
    30   14   52 1
    31   14   53 1
    32   15   16 1
    33   15   17 1
    34   15   24 1
    35   17   22 ar
    36   17   18 ar
    37   18   19 ar
    38   18   54 1
    39   19   20 ar
    40   19   55 1
    41   20   21 ar
    42   20   23 1
    43   21   22 ar
    44   21   56 1
    45   22   57 1
    46   23   58 1
    47   23   59 1
    48   23   60 1
    49   24   25 2
    50   24   26 am
    51   26   27 1
    52   26   61 1
    53   27   28 1
    54   27   62 1
    55   27   63 1
    56   28   29 2
    57   28   30 2
    58   28   31 1
    59   31   36 ar
    60   31   32 ar
    61   32   33 ar
    62   32   64 1
    63   33   34 ar
    64   33   65 1
    65   34   35 ar
    66   34   37 1
    67   35   36 ar
    68   35   66 1
    69   36   67 1
    70   37   68 1
    71   37   69 1
    72   37   70 1
@<TRIPOS>MOLECULE
ZINC09369059
   55    58     0     0     0
SMALL
USER_CHARGES
2-[[4-(4-fluorophenyl)-5-[(2-phenoxyacetyl)aminomethyl]-1,2,4-triazol-3-yl]sulfanyl]-N-(5-methyl-1,3,4-thiadiazol-2-yl)-acetamide
@<TRIPOS>ATOM
      1 C1         -3.0074   17.7778    2.0471 C.3       1 <0>        -0.0607
      2 C2         -2.8417   16.2817    2.1199 C.2       1 <0>         0.0560
      3 N1         -3.6221   15.3209    1.6667 N.2       1 <0>        -0.2477
      4 N2         -3.3091   14.1085    1.8264 N.2       1 <0>        -0.2875
      5 C3         -2.1985   13.7498    2.4477 C.2       1 <0>         0.2595
      6 S1         -1.5340   15.3054    2.8527 S.3       1 <0>         0.0274
      7 N3         -1.7012   12.4779    2.7106 N.am      1 <0>        -0.6066
      8 C4         -2.3872   11.3898    2.3082 C.2       1 <0>         0.5307
      9 O1         -3.4381   11.5198    1.7169 O.2       1 <0>        -0.4489
     10 C5         -1.8483   10.0115    2.5930 C.3       1 <0>        -0.1514
     11 S2         -2.9877    8.7699    1.9326 S.3       1 <0>         0.1102
     12 C6         -2.1360    7.2976    2.3927 C.2       1 <0>         0.1545
     13 N4         -0.9943    7.2247    3.0369 N.2       1 <0>        -0.2860
     14 N5         -0.6674    5.9940    3.2104 N.2       1 <0>        -0.2487
     15 C7         -1.5679    5.2122    2.6851 C.2       1 <0>         0.1714
     16 N6         -2.5393    6.0139    2.1471 N.pl3     1 <0>        -0.4066
     17 C8         -3.7050    5.6038    1.4822 C.ar      1 <0>         0.0796
     18 C9         -3.6143    4.9335    0.2701 C.ar      1 <0>        -0.0642
     19 C10        -4.7625    4.5260   -0.3803 C.ar      1 <0>        -0.1392
     20 C11        -6.0040    4.7950    0.1709 C.ar      1 <0>         0.1282
     21 C12        -6.0966    5.4686    1.3772 C.ar      1 <0>        -0.1360
     22 C13        -4.9503    5.8730    2.0330 C.ar      1 <0>        -0.0641
     23 F1         -7.1263    4.4001   -0.4692 F         1 <0>        -0.1257
     24 C14        -1.5474    3.7053    2.6768 C.3       1 <0>         0.2148
     25 N7         -0.8617    3.2329    1.4715 N.am      1 <0>        -0.7268
     26 C15        -0.7227    1.9108    1.2498 C.2       1 <0>         0.5222
     27 O2         -1.1652    1.1122    2.0481 O.2       1 <0>        -0.5029
     28 C16        -0.0173    1.4248    0.0099 C.3       1 <0>         0.0431
     29 O3          0.0021   -0.0041    0.0020 O.3       1 <0>        -0.2892
     30 C17         0.6058   -0.6071   -1.0557 C.ar      1 <0>         0.1259
     31 C18         1.1630    0.1606   -2.0681 C.ar      1 <0>        -0.2114
     32 C19         1.7816   -0.4548   -3.1391 C.ar      1 <0>        -0.0799
     33 C20         1.8348   -1.8347   -3.2088 C.ar      1 <0>        -0.1558
     34 C21         1.2752   -2.6020   -2.2039 C.ar      1 <0>        -0.0786
     35 C22         0.6609   -1.9915   -1.1277 C.ar      1 <0>        -0.1464
     36 H1         -3.5524   18.1261    2.9244 H         1 <0>         0.0976
     37 H2         -2.0259   18.2510    2.0175 H         1 <0>         0.0922
     38 H3         -3.5636   18.0383    1.1466 H         1 <0>         0.1035
     39 H4         -0.8607   12.3740    3.1835 H         1 <0>         0.4335
     40 H5         -1.7478    9.8761    3.6699 H         1 <0>         0.1387
     41 H6         -0.8730    9.8978    2.1199 H         1 <0>         0.1384
     42 H7         -2.6463    4.7274   -0.1622 H         1 <0>         0.1385
     43 H8         -4.6921    4.0008   -1.3214 H         1 <0>         0.1515
     44 H9         -7.0657    5.6782    1.8053 H         1 <0>         0.1535
     45 H10        -5.0229    6.3987    2.9736 H         1 <0>         0.1458
     46 H11        -2.5700    3.3281    2.6845 H         1 <0>         0.0949
     47 H12        -1.0203    3.3443    3.5599 H         1 <0>         0.1136
     48 H13        -0.5078    3.8716    0.8330 H         1 <0>         0.4042
     49 H14         1.0053    1.8021    0.0021 H         1 <0>         0.0970
     50 H15        -0.5445    1.7859   -0.8732 H         1 <0>         0.0948
     51 H16         1.1174    1.2384   -2.0165 H         1 <0>         0.1266
     52 H17         2.2194    0.1424   -3.9253 H         1 <0>         0.1261
     53 H18         2.3146   -2.3139   -4.0493 H         1 <0>         0.1254
     54 H19         1.3187   -3.6797   -2.2603 H         1 <0>         0.1317
     55 H20         0.2237   -2.5913   -0.3432 H         1 <0>         0.1334
@<TRIPOS>BOND
     1    1    2 1
     2    1   36 1
     3    1   37 1
     4    1   38 1
     5    2    6 1
     6    2    3 2
     7    3    4 1
     8    4    5 2
     9    5    6 1
    10    5    7 1
    11    7    8 am
    12    7   39 1
    13    8    9 2
    14    8   10 1
    15   10   11 1
    16   10   40 1
    17   10   41 1
    18   11   12 1
    19   12   16 1
    20   12   13 2
    21   13   14 1
    22   14   15 2
    23   15   16 1
    24   15   24 1
    25   16   17 1
    26   17   22 ar
    27   17   18 ar
    28   18   19 ar
    29   18   42 1
    30   19   20 ar
    31   19   43 1
    32   20   21 ar
    33   20   23 1
    34   21   22 ar
    35   21   44 1
    36   22   45 1
    37   24   25 1
    38   24   46 1
    39   24   47 1
    40   25   26 am
    41   25   48 1
    42   26   27 2
    43   26   28 1
    44   28   29 1
    45   28   49 1
    46   28   50 1
    47   29   30 1
    48   30   35 ar
    49   30   31 ar
    50   31   32 ar
    51   31   51 1
    52   32   33 ar
    53   32   52 1
    54   33   34 ar
    55   33   53 1
    56   34   35 ar
    57   34   54 1
    58   35   55 1
@<TRIPOS>MOLECULE
ZINC13579399
   56    59     0     0     0
SMALL
USER_CHARGES
2-[6-chloro-3-[[2,2-difluoro-2-(2-pyridyl)ethyl]amino]-2-oxo-pyrazin-1-yl]-N-[[2-(1-methyltetrazol-5-yl)phenyl]methyl]acetamide
@<TRIPOS>ATOM
      1 C1          2.3320    3.5410    3.7686 C.3       1 <0>         0.0838
      2 N1          2.3895    2.2304    3.1166 N.pl3     1 <0>        -0.3719
      3 C2          1.3454    1.4611    2.7204 C.2       1 <0>         0.2815
      4 N2          1.8512    0.3686    2.1882 N.2       1 <0>        -0.3098
      5 N3          3.1345    0.4066    2.2177 N.2       1 <0>        -0.0362
      6 N4          3.5389    1.5001    2.7674 N.2       1 <0>        -0.0781
      7 C3         -0.0915    1.7858    2.8648 C.ar      1 <0>        -0.0254
      8 C4         -0.5863    2.2458    4.0853 C.ar      1 <0>        -0.0901
      9 C5         -1.9266    2.5463    4.2138 C.ar      1 <0>        -0.1066
     10 C6         -2.7795    2.3926    3.1352 C.ar      1 <0>        -0.0918
     11 C7         -2.2940    1.9414    1.9211 C.ar      1 <0>        -0.0957
     12 C8         -0.9562    1.6325    1.7815 C.ar      1 <0>        -0.0617
     13 C9         -0.4298    1.1366    0.4594 C.3       1 <0>         0.1663
     14 N5         -0.2891   -0.3209    0.5055 N.am      1 <0>        -0.7042
     15 C10         0.1684   -0.9882   -0.5724 C.2       1 <0>         0.5138
     16 O1          0.4637   -0.3820   -1.5805 O.2       1 <0>        -0.5253
     17 C11         0.3131   -2.4875   -0.5250 C.3       1 <0>         0.0713
     18 N6          0.8249   -2.9696   -1.8102 N.am      1 <0>        -0.4622
     19 C12         2.1675   -3.0781   -2.0223 C.2       1 <0>         0.0824
     20 C13         2.6486   -3.5222   -3.2058 C.2       1 <0>         0.0495
     21 N7          1.8385   -3.8689   -4.2045 N.2       1 <0>        -0.4835
     22 C14         0.5317   -3.7895   -4.0699 C.2       1 <0>         0.3591
     23 C15        -0.0277   -3.3179   -2.7996 C.2       1 <0>         0.5044
     24 O2         -1.2342   -3.2374   -2.6407 O.2       1 <0>        -0.5170
     25 N8         -0.3072   -4.1536   -5.1167 N.pl3     1 <0>        -0.6903
     26 C16         0.2619   -4.6295   -6.3800 C.3       1 <0>         0.1145
     27 C17        -0.8689   -4.9610   -7.3559 C.3       1 <0>         0.3425
     28 C18        -0.2835   -5.4505   -8.6554 C.ar      1 <0>         0.0593
     29 C19        -1.1251   -5.8105   -9.6912 C.ar      1 <0>        -0.1300
     30 C20        -0.5764   -6.2591  -10.8826 C.ar      1 <0>        -0.0726
     31 C21         0.8045   -6.3291  -10.9882 C.ar      1 <0>        -0.1484
     32 C22         1.5823   -5.9521   -9.9101 C.ar      1 <0>         0.1052
     33 N9          1.0257   -5.5253   -8.7932 N.ar      1 <0>        -0.4534
     34 F1         -1.6823   -5.9576   -6.8061 F         1 <0>        -0.1807
     35 F2         -1.6329   -3.8130   -7.5917 F         1 <0>        -0.1806
     36 Cl1         3.2732   -2.6414   -0.7572 Cl        1 <0>        -0.0086
     37 H1          2.2129    3.4071    4.8437 H         1 <0>         0.0939
     38 H2          3.2549    4.0862    3.5704 H         1 <0>         0.1075
     39 H3          1.4856    4.1050    3.3767 H         1 <0>         0.1005
     40 H4          0.0785    2.3662    4.9280 H         1 <0>         0.1295
     41 H5         -2.3109    2.9025    5.1582 H         1 <0>         0.1368
     42 H6         -3.8280    2.6291    3.2407 H         1 <0>         0.1360
     43 H7         -2.9639    1.8274    1.0816 H         1 <0>         0.1385
     44 H8          0.5420    1.5894    0.2623 H         1 <0>         0.0718
     45 H9         -1.1254    1.4096   -0.3341 H         1 <0>         0.0832
     46 H10        -0.5253   -0.8057    1.3118 H         1 <0>         0.4056
     47 H11         1.0088   -2.7604    0.2685 H         1 <0>         0.1315
     48 H12        -0.6586   -2.9402   -0.3280 H         1 <0>         0.1330
     49 H13         3.7170   -3.5980   -3.3444 H         1 <0>         0.1808
     50 H14        -1.2695   -4.0927   -5.0107 H         1 <0>         0.4213
     51 H15         0.8956   -3.8530   -6.8083 H         1 <0>         0.1091
     52 H16         0.8571   -5.5240   -6.1962 H         1 <0>         0.1095
     53 H17        -2.1966   -5.7428   -9.5738 H         1 <0>         0.1426
     54 H18        -1.2094   -6.5475  -11.7087 H         1 <0>         0.1453
     55 H19         1.2663   -6.6736  -11.9017 H         1 <0>         0.1452
     56 H20         2.6585   -6.0037   -9.9843 H         1 <0>         0.1689
@<TRIPOS>BOND
     1    1    2 1
     2    1   37 1
     3    1   38 1
     4    1   39 1
     5    2    6 1
     6    2    3 1
     7    3    4 2
     8    3    7 1
     9    4    5 1
    10    5    6 2
    11    7   12 ar
    12    7    8 ar
    13    8    9 ar
    14    8   40 1
    15    9   10 ar
    16    9   41 1
    17   10   11 ar
    18   10   42 1
    19   11   12 ar
    20   11   43 1
    21   12   13 1
    22   13   14 1
    23   13   44 1
    24   13   45 1
    25   14   15 am
    26   14   46 1
    27   15   16 2
    28   15   17 1
    29   17   18 1
    30   17   47 1
    31   17   48 1
    32   18   23 am
    33   18   19 1
    34   19   20 2
    35   19   36 1
    36   20   21 1
    37   20   49 1
    38   21   22 2
    39   22   23 1
    40   22   25 1
    41   23   24 2
    42   25   26 1
    43   25   50 1
    44   26   27 1
    45   26   51 1
    46   26   52 1
    47   27   28 1
    48   27   34 1
    49   27   35 1
    50   28   33 ar
    51   28   29 ar
    52   29   30 ar
    53   29   53 1
    54   30   31 ar
    55   30   54 1
    56   31   32 ar
    57   31   55 1
    58   32   33 ar
    59   32   56 1
@<TRIPOS>MOLECULE
ZINC35539006
   69    71     0     0     0
SMALL
USER_CHARGES

@<TRIPOS>ATOM
      1 C1         -0.9316   -2.5683   -0.6643 C.3       1 <0>        -0.1659
      2 C2         -1.0877   -2.7535    0.8464 C.3       1 <0>         0.0876
      3 N1          0.0557   -2.1476    1.5333 N.pl3     1 <0>        -0.4015
      4 C3          1.2027   -2.7747    1.8317 C.2       1 <0>         0.1157
      5 C4          2.0370   -1.8753    2.4776 C.2       1 <0>        -0.2602
      6 C5          1.3362   -0.6487    2.5622 C.2       1 <0>        -0.0195
      7 C6          0.1237   -0.8413    1.9693 C.2       1 <0>        -0.0504
      8 C7         -0.9304    0.1680    1.8237 C.2       1 <0>         0.5354
      9 O1         -0.7573    1.2938    2.2494 O.2       1 <0>        -0.4925
     10 O2         -2.0919   -0.1525    1.2177 O.3       1 <0>        -0.3573
     11 C8         -3.0742    0.8798    1.1105 C.3       1 <0>         0.0343
     12 C9          1.8374    0.6294    3.1838 C.3       1 <0>        -0.0954
     13 C10         3.3885   -2.1441    2.9788 C.2       1 <0>         0.4127
     14 O3          4.3420   -2.0455    2.2351 O.2       1 <0>        -0.4204
     15 C11         3.5932   -2.5429    4.4176 C.3       1 <0>         0.0707
     16 N2          5.0275   -2.6531    4.6945 N.pl3     1 <0>        -0.9786
     17 C12         5.7963   -1.4613    5.0620 C.3       1 <0>         0.1163
     18 C13         5.6734   -1.2195    6.5677 C.3       1 <0>         0.0569
     19 H1          4.6217   -1.1699    6.8495 H         1 <0>         0.0851
     20 C14         6.3795    0.1004    6.9455 C.3       1 <0>        -0.1492
     21 C15         7.0529   -0.2612    8.2974 C.3       1 <0>        -0.1574
     22 C16         7.4095   -1.7502    8.0594 C.3       1 <0>         0.0525
     23 O4          6.3192   -2.2784    7.2843 O.3       1 <0>        -0.3604
     24 S1          5.7799   -4.1247    4.5921 S.o2      1 <0>         2.6905
     25 O5          6.9359   -4.0480    5.4149 O.2       1 <0>        -0.9275
     26 O6          4.7734   -5.1096    4.7824 O.2       1 <0>        -0.9608
     27 C17         6.3522   -4.3031    2.9352 C.ar      1 <0>        -0.6851
     28 C18         5.5335   -4.8786    1.9808 C.ar      1 <0>         0.0080
     29 C19         5.9791   -5.0199    0.6812 C.ar      1 <0>        -0.1645
     30 C20         7.2505   -4.5829    0.3332 C.ar      1 <0>         0.2031
     31 C21         8.0700   -4.0050    1.2940 C.ar      1 <0>        -0.1423
     32 C22         7.6167   -3.8622    2.5908 C.ar      1 <0>         0.0051
     33 N3          7.7051   -4.7250   -0.9825 N.am      1 <0>        -0.6792
     34 C23         9.0112   -4.9548   -1.2231 C.2       1 <0>         0.5105
     35 O7          9.7763   -5.1310   -0.2986 O.2       1 <0>        -0.5168
     36 C24         9.5209   -4.9926   -2.6408 C.3       1 <0>        -0.1739
     37 C25         1.5292   -4.2123    1.5187 C.3       1 <0>        -0.1031
     38 H2         -0.0117   -3.0495   -0.9963 H         1 <0>         0.0618
     39 H3         -1.7823   -3.0191   -1.1754 H         1 <0>         0.0803
     40 H4         -0.8897   -1.5044   -0.8976 H         1 <0>         0.0650
     41 H5         -2.0076   -2.2723    1.1783 H         1 <0>         0.1101
     42 H6         -1.1296   -3.8174    1.0796 H         1 <0>         0.0969
     43 H7         -2.6653    1.7125    0.5383 H         1 <0>         0.0627
     44 H8         -3.9572    0.4899    0.6043 H         1 <0>         0.1037
     45 H9         -3.3494    1.2244    2.1073 H         1 <0>         0.0632
     46 H10         2.2654    1.2664    2.4097 H         1 <0>         0.0755
     47 H11         1.0086    1.1489    3.6647 H         1 <0>         0.0847
     48 H12         2.6007    0.3973    3.9264 H         1 <0>         0.0649
     49 H13         3.1542   -1.7879    5.0698 H         1 <0>         0.1212
     50 H14         3.1130   -3.5043    4.6000 H         1 <0>         0.1294
     51 H15         6.8443   -1.6107    4.8023 H         1 <0>         0.0898
     52 H16         5.4078   -0.5977    4.5223 H         1 <0>         0.0908
     53 H17         7.1274    0.3678    6.1989 H         1 <0>         0.0803
     54 H18         5.6551    0.9044    7.0757 H         1 <0>         0.0842
     55 H19         7.9497    0.3361    8.4618 H         1 <0>         0.0831
     56 H20         6.3533   -0.1524    9.1262 H         1 <0>         0.0779
     57 H21         8.3437   -1.8313    7.5038 H         1 <0>         0.0632
     58 H22         7.4869   -2.2773    9.0103 H         1 <0>         0.0838
     59 H23         4.5449   -5.2182    2.2520 H         1 <0>         0.1343
     60 H24         5.3396   -5.4701   -0.0636 H         1 <0>         0.1326
     61 H25         9.0594   -3.6645    1.0266 H         1 <0>         0.1416
     62 H26         8.2520   -3.4091    3.3374 H         1 <0>         0.1403
     63 H27         7.0802   -4.6581   -1.7214 H         1 <0>         0.4151
     64 H28         9.3293   -4.0333   -3.1215 H         1 <0>         0.0943
     65 H29        10.5930   -5.1892   -2.6363 H         1 <0>         0.0994
     66 H30         9.0089   -5.7829   -3.1899 H         1 <0>         0.0932
     67 H31         2.0001   -4.2726    0.5375 H         1 <0>         0.0864
     68 H32         2.2116   -4.6026    2.2738 H         1 <0>         0.0881
     69 H33         0.6121   -4.8014    1.5185 H         1 <0>         0.0797
@<TRIPOS>BOND
     1    1    2 1
     2    1   38 1
     3    1   39 1
     4    1   40 1
     5    2    3 1
     6    2   41 1
     7    2   42 1
     8    3    7 1
     9    3    4 1
    10    4    5 2
    11    4   37 1
    12    5    6 1
    13    5   13 1
    14    6    7 2
    15    6   12 1
    16    7    8 1
    17    8    9 2
    18    8   10 1
    19   10   11 1
    20   11   43 1
    21   11   44 1
    22   11   45 1
    23   12   46 1
    24   12   47 1
    25   12   48 1
    26   13   14 2
    27   13   15 1
    28   15   16 1
    29   15   49 1
    30   15   50 1
    31   16   17 1
    32   16   24 1
    33   17   18 1
    34   17   51 1
    35   17   52 1
    36   18   19 1
    37   18   23 1
    38   18   20 1
    39   20   21 1
    40   20   53 1
    41   20   54 1
    42   21   22 1
    43   21   55 1
    44   21   56 1
    45   22   23 1
    46   22   57 1
    47   22   58 1
    48   24   25 2
    49   24   26 2
    50   24   27 1
    51   27   32 ar
    52   27   28 ar
    53   28   29 ar
    54   28   59 1
    55   29   30 ar
    56   29   60 1
    57   30   31 ar
    58   30   33 1
    59   31   32 ar
    60   31   61 1
    61   32   62 1
    62   33   34 am
    63   33   63 1
    64   34   35 2
    65   34   36 1
    66   36   64 1
    67   36   65 1
    68   36   66 1
    69   37   67 1
    70   37   68 1
    71   37   69 1
@<TRIPOS>MOLECULE
ZINC36684811
   59    62     0     0     0
SMALL
USER_CHARGES

@<TRIPOS>ATOM
      1 C1          0.2384    1.4605   -0.0258 C.3       1 <0>        -0.0939
      2 C2         -0.0025   -0.0271   -0.0111 C.2       1 <0>        -0.1189
      3 C3         -0.2353   -0.6962   -1.1759 C.2       1 <0>        -0.0197
      4 C4         -0.4576   -2.0797   -1.1459 C.2       1 <0>        -0.1685
      5 C5         -0.4408   -2.7438    0.0315 C.2       1 <0>         0.1104
      6 N1         -0.2093   -2.0839    1.2018 N.am      1 <0>        -0.4285
      7 C6          0.0171   -0.7356    1.2038 C.2       1 <0>         0.4437
      8 N2          0.2510   -0.0735    2.3371 N.2       1 <0>        -0.5842
      9 C7          0.2807   -0.6905    3.5094 C.2       1 <0>         0.5095
     10 C8          0.0597   -2.0867    3.5685 C.2       1 <0>        -0.3812
     11 C9         -0.1997   -2.7774    2.3606 C.2       1 <0>         0.5524
     12 O1         -0.3957   -3.9805    2.3644 O.2       1 <0>        -0.5147
     13 C10         0.0853   -2.7730    4.8049 C.2       1 <0>         0.1273
     14 C11         1.0685   -3.6850    5.0590 C.2       1 <0>        -0.2195
     15 C12         2.2149   -4.0207    4.2837 C.2       1 <0>         0.5409
     16 O2          2.4372   -3.4663    3.2217 O.2       1 <0>        -0.4541
     17 N3          3.0311   -4.9503    4.7490 N.am      1 <0>        -0.5170
     18 C13         2.7843   -5.5653    5.9271 C.2       1 <0>         0.2901
     19 S1          3.6944   -6.7834    6.7136 S.2       1 <0>        -0.3239
     20 S2          1.2719   -4.7773    6.4593 S.3       1 <0>         0.0281
     21 C14         4.2198   -5.3199    3.9766 C.3       1 <0>         0.0810
     22 C15         5.3956   -4.4352    4.3956 C.3       1 <0>        -0.0956
     23 C16         6.6371   -4.8212    3.5890 C.3       1 <0>        -0.1790
     24 C17         7.7953   -3.9498    4.0017 C.2       1 <0>         0.4941
     25 O3          7.6420   -3.0990    4.8614 O.co2     1 <0>        -0.7028
     26 O4          8.8856   -4.0957    3.4760 O.co2     1 <0>        -0.7003
     27 N4          0.5256    0.0225    4.6626 N.pl3     1 <0>        -0.7032
     28 C18         0.7543    1.4680    4.5955 C.3       1 <0>         0.1306
     29 C19         1.0000    2.0115    6.0045 C.3       1 <0>        -0.1602
     30 C20         1.2388    3.5211    5.9344 C.3       1 <0>         0.0974
     31 N5          1.4740    4.0415    7.2835 N.pl3     1 <0>        -0.4086
     32 C21         0.5229    4.5010    8.1540 C.2       1 <0>         0.0242
     33 C22         1.1695    4.8809    9.2726 C.2       1 <0>         0.0022
     34 N6          2.4797    4.6594    9.0900 N.pl3     1 <0>        -0.4767
     35 C23         2.6690    4.1519    7.9027 C.cat     1 <0>         0.2936
     36 H1          1.3047    1.6547   -0.1414 H         1 <0>         0.0774
     37 H2         -0.3049    1.9083   -0.8579 H         1 <0>         0.0733
     38 H3         -0.1104    1.8943    0.9114 H         1 <0>         0.0809
     39 H4         -0.2487   -0.1637   -2.1154 H         1 <0>         0.1563
     40 H5         -0.6431   -2.6160   -2.0648 H         1 <0>         0.1641
     41 H6         -0.6131   -3.8099    0.0453 H         1 <0>         0.1844
     42 H7         -0.6732   -2.5756    5.5480 H         1 <0>         0.1427
     43 H8          4.4657   -6.3648    4.1658 H         1 <0>         0.1082
     44 H9          4.0206   -5.1802    2.9140 H         1 <0>         0.0974
     45 H10         5.1497   -3.3903    4.2064 H         1 <0>         0.0602
     46 H11         5.5948   -4.5749    5.4581 H         1 <0>         0.0703
     47 H12         6.8830   -5.8661    3.7782 H         1 <0>         0.0652
     48 H13         6.4379   -4.6815    2.5265 H         1 <0>         0.0589
     49 H14         0.5467   -0.4326    5.5190 H         1 <0>         0.4145
     50 H15         1.6249    1.6695    3.9714 H         1 <0>         0.0819
     51 H16        -0.1212    1.9548    4.1659 H         1 <0>         0.0807
     52 H17         0.1293    1.8100    6.6286 H         1 <0>         0.0889
     53 H18         1.8755    1.5247    6.4341 H         1 <0>         0.0897
     54 H19         2.1094    3.7226    5.3103 H         1 <0>         0.1281
     55 H20         0.3632    4.0079    5.5047 H         1 <0>         0.1291
     56 H21        -0.5415    4.5499    7.9777 H         1 <0>         0.2223
     57 H22         0.7132    5.2919   10.1609 H         1 <0>         0.2228
     58 H23         3.6235    3.8695    7.4837 H         1 <0>         0.2617
     59 H24         3.1763    4.8437    9.7394 H         1 <0>         0.4658
@<TRIPOS>BOND
     1    1    2 1
     2    1   36 1
     3    1   37 1
     4    1   38 1
     5    2    7 1
     6    2    3 2
     7    3    4 1
     8    3   39 1
     9    4    5 2
    10    4   40 1
    11    5    6 1
    12    5   41 1
    13    6   11 am
    14    6    7 1
    15    7    8 2
    16    8    9 1
    17    9   10 2
    18    9   27 1
    19   10   11 1
    20   10   13 1
    21   11   12 2
    22   13   14 2
    23   13   42 1
    24   14   20 1
    25   14   15 1
    26   15   16 2
    27   15   17 am
    28   17   18 1
    29   17   21 1
    30   18   19 2
    31   18   20 1
    32   21   22 1
    33   21   43 1
    34   21   44 1
    35   22   23 1
    36   22   45 1
    37   22   46 1
    38   23   24 1
    39   23   47 1
    40   23   48 1
    41   24   25 2
    42   24   26 1
    43   27   28 1
    44   27   49 1
    45   28   29 1
    46   28   50 1
    47   28   51 1
    48   29   30 1
    49   29   52 1
    50   29   53 1
    51   30   31 1
    52   30   54 1
    53   30   55 1
    54   31   35 1
    55   31   32 1
    56   32   33 2
    57   32   56 1
    58   33   34 1
    59   33   57 1
    60   34   35 2
    61   34   59 1
    62   35   58 1
@<TRIPOS>MOLECULE
ZINC12471015
   64    67     0     0     0
SMALL
USER_CHARGES

@<TRIPOS>ATOM
      1 C1          2.3894  -10.9091   -8.4698 C.3       1 <0>        -0.1502
      2 C2          2.0824   -9.7469   -9.4164 C.3       1 <0>         0.0010
      3 C3          0.6035   -9.7841   -9.8068 C.3       1 <0>        -0.1455
      4 C4          2.3870   -8.4426   -8.7257 C.2       1 <0>         0.1359
      5 N1          1.5816   -7.6582   -8.0683 N.2       1 <0>        -0.2615
      6 N2          2.0339   -6.4927   -7.4877 N.pl3     1 <0>        -0.4344
      7 C5          1.2696   -5.6213   -6.6822 C.2       1 <0>         0.4572
      8 N3          0.1917   -5.9934   -6.0447 N.2       1 <0>        -0.6257
      9 C6          1.8137   -4.2347   -6.6308 C.2       1 <0>        -0.2267
     10 C7          0.9911   -3.1364   -6.5173 C.2       1 <0>         0.0928
     11 C8         -0.4606   -3.2940   -6.6304 C.ar      1 <0>        -0.0933
     12 C9         -1.3171   -2.4970   -5.8575 C.ar      1 <0>        -0.0664
     13 C10        -2.6809   -2.6475   -5.9667 C.ar      1 <0>        -0.1845
     14 C11        -3.2124   -3.5879   -6.8409 C.ar      1 <0>         0.1328
     15 C12        -2.3674   -4.3851   -7.6138 C.ar      1 <0>         0.0958
     16 C13        -0.9989   -4.2383   -7.5162 C.ar      1 <0>        -0.1188
     17 O1         -2.8932   -5.3041   -8.4674 O.3       1 <0>        -0.3009
     18 C14        -1.9699   -6.0861   -9.2278 C.3       1 <0>         0.0290
     19 O2         -4.5585   -3.7317   -6.9430 O.3       1 <0>        -0.2913
     20 C15        -5.3655   -2.8841   -6.1229 C.3       1 <0>         0.0580
     21 C16        -6.8437   -3.1890   -6.3738 C.3       1 <0>         0.0612
     22 O3         -7.1352   -4.5202   -5.9436 O.3       1 <0>        -0.3061
     23 C17        -8.4152   -4.9523   -6.0974 C.ar      1 <0>         0.1186
     24 C18        -9.3678   -4.1130   -6.6562 C.ar      1 <0>        -0.1896
     25 C19       -10.6679   -4.5512   -6.8127 C.ar      1 <0>        -0.0786
     26 C20       -11.0216   -5.8322   -6.4106 C.ar      1 <0>         0.1045
     27 C21       -10.0676   -6.6718   -5.8513 C.ar      1 <0>        -0.1036
     28 C22        -8.7665   -6.2343   -5.7006 C.ar      1 <0>        -0.1303
     29 N4        -12.3407   -6.2773   -6.5686 N.am      1 <0>        -0.6728
     30 C23       -13.0723   -5.8570   -7.6196 C.2       1 <0>         0.5090
     31 O4        -12.5611   -5.1699   -8.4785 O.2       1 <0>        -0.5282
     32 C24       -14.5257   -6.2408   -7.7275 C.3       1 <0>        -0.1704
     33 C25         3.2897   -4.1012   -6.7091 C.2       1 <0>         0.5513
     34 O5          3.8581   -3.1291   -6.2384 O.2       1 <0>        -0.4444
     35 N5          3.9839   -5.0845   -7.3144 N.2       1 <0>        -0.5398
     36 C26         3.3583   -6.1708   -7.6932 C.2       1 <0>         0.3967
     37 S1          3.9476   -7.5810   -8.5927 S.3       1 <0>         0.0917
     38 H1          3.4430  -10.8826   -8.1917 H         1 <0>         0.0669
     39 H2          1.7748  -10.8202   -7.5740 H         1 <0>         0.0658
     40 H3          2.1691  -11.8525   -8.9694 H         1 <0>         0.0830
     41 H4          2.6970   -9.8358  -10.3122 H         1 <0>         0.1162
     42 H5         -0.0111   -9.6952   -8.9110 H         1 <0>         0.0686
     43 H6          0.3848   -8.9561  -10.4811 H         1 <0>         0.0635
     44 H7          0.3832  -10.7275  -10.3063 H         1 <0>         0.0788
     45 H8         -0.1561   -6.8911   -6.1629 H         1 <0>         0.3580
     46 H9          1.4163   -2.1587   -6.3448 H         1 <0>         0.1621
     47 H10        -0.9070   -1.7658   -5.1766 H         1 <0>         0.1374
     48 H11        -3.3398   -2.0333   -5.3710 H         1 <0>         0.1415
     49 H12        -0.3442   -4.8519   -8.1173 H         1 <0>         0.1259
     50 H13        -1.3592   -5.4279   -9.8458 H         1 <0>         0.0502
     51 H14        -1.3270   -6.6490   -8.5511 H         1 <0>         0.0507
     52 H15        -2.5194   -6.7777   -9.8664 H         1 <0>         0.1035
     53 H16        -5.1306   -3.0630   -5.0737 H         1 <0>         0.0782
     54 H17        -5.1629   -1.8415   -6.3680 H         1 <0>         0.0882
     55 H18        -7.4599   -2.4838   -5.8160 H         1 <0>         0.0872
     56 H19        -7.0583   -3.0961   -7.4384 H         1 <0>         0.0766
     57 H20        -9.0927   -3.1164   -6.9687 H         1 <0>         0.1311
     58 H21       -11.4096   -3.8975   -7.2475 H         1 <0>         0.1365
     59 H22       -10.3421   -7.6682   -5.5379 H         1 <0>         0.1333
     60 H23        -8.0234   -6.8888   -5.2696 H         1 <0>         0.1357
     61 H24       -12.7273   -6.8879   -5.9216 H         1 <0>         0.4113
     62 H25       -14.8040   -6.8544   -6.8708 H         1 <0>         0.0787
     63 H26       -15.1391   -5.3399   -7.7439 H         1 <0>         0.0996
     64 H27       -14.6850   -6.8056   -8.6461 H         1 <0>         0.0990
@<TRIPOS>BOND
     1    1    2 1
     2    1   38 1
     3    1   39 1
     4    1   40 1
     5    2    3 1
     6    2    4 1
     7    2   41 1
     8    3   42 1
     9    3   43 1
    10    3   44 1
    11    4   37 1
    12    4    5 2
    13    5    6 1
    14    6   36 1
    15    6    7 1
    16    7    8 2
    17    7    9 1
    18    8   45 1
    19    9   10 2
    20    9   33 1
    21   10   11 1
    22   10   46 1
    23   11   16 ar
    24   11   12 ar
    25   12   13 ar
    26   12   47 1
    27   13   14 ar
    28   13   48 1
    29   14   15 ar
    30   14   19 1
    31   15   16 ar
    32   15   17 1
    33   16   49 1
    34   17   18 1
    35   18   50 1
    36   18   51 1
    37   18   52 1
    38   19   20 1
    39   20   21 1
    40   20   53 1
    41   20   54 1
    42   21   22 1
    43   21   55 1
    44   21   56 1
    45   22   23 1
    46   23   28 ar
    47   23   24 ar
    48   24   25 ar
    49   24   57 1
    50   25   26 ar
    51   25   58 1
    52   26   27 ar
    53   26   29 1
    54   27   28 ar
    55   27   59 1
    56   28   60 1
    57   29   30 am
    58   29   61 1
    59   30   31 2
    60   30   32 1
    61   32   62 1
    62   32   63 1
    63   32   64 1
    64   33   34 2
    65   33   35 1
    66   35   36 2
    67   36   37 1
@<TRIPOS>MOLECULE
ZINC07104341
   50    52     0     0     0
SMALL
USER_CHARGES
5,6-dimethyl-3-oxo-2-[[4-[3-(trifluoromethyl)phenyl]piperazin-1-yl]carbonylmethyl]pyridazine-4-carbonitrile
@<TRIPOS>ATOM
      1 C1          2.2614   13.8846   -5.2405 C.3       1 <0>        -0.1333
      2 C2          1.6340   12.6752   -4.5966 C.2       1 <0>         0.0395
      3 C3          0.8644   12.7946   -3.4336 C.2       1 <0>         0.0692
      4 N1          0.3157   11.7516   -2.8771 N.2       1 <0>        -0.1968
      5 N2          0.4386   10.5579   -3.3279 N.am      1 <0>        -0.3261
      6 C4          1.1505   10.2887   -4.4408 C.2       1 <0>         0.5115
      7 O1          1.2508    9.1469   -4.8562 O.2       1 <0>        -0.5076
      8 C5          1.8018   11.4028   -5.1413 C.2       1 <0>        -0.1099
      9 C6          2.5732   11.1923   -6.3292 C.1       1 <0>         0.2711
     10 N3          3.1852   11.0252   -7.2716 N.1       1 <0>        -0.3877
     11 C7         -0.2171    9.4570   -2.6178 C.3       1 <0>         0.0947
     12 C8          0.7242    8.8949   -1.5838 C.2       1 <0>         0.5105
     13 O2          1.8335    9.3673   -1.4529 O.2       1 <0>        -0.5206
     14 N4          0.3332    7.8671   -0.8045 N.am      1 <0>        -0.6118
     15 C9          1.2360    7.3035    0.2107 C.3       1 <0>         0.1179
     16 C10         1.2951    5.7842    0.0199 C.3       1 <0>         0.0339
     17 N5         -0.0690    5.2391    0.0304 N.pl3     1 <0>        -0.4855
     18 C11        -0.8600    5.7607   -1.0923 C.3       1 <0>         0.0381
     19 C12        -1.0074    7.2791   -0.9470 C.3       1 <0>         0.1067
     20 C13        -0.0501    3.8425    0.0232 C.ar      1 <0>         0.1107
     21 C14         1.1615    3.1627    0.0080 C.ar      1 <0>        -0.1388
     22 C15         1.1766    1.7820    0.0004 C.ar      1 <0>        -0.0900
     23 C16        -0.0126    1.0758    0.0080 C.ar      1 <0>        -0.0975
     24 C17        -1.2201    1.7492    0.0174 C.ar      1 <0>        -0.1557
     25 C18        -1.2424    3.1302    0.0307 C.ar      1 <0>        -0.0907
     26 C19        -2.5133    0.9755    0.0188 C.3       1 <0>         0.5086
     27 F1         -2.2364   -0.3958    0.0096 F         1 <0>        -0.1754
     28 F2         -3.2469    1.2954    1.1663 F         1 <0>        -0.1747
     29 F3         -3.2573    1.3086   -1.1182 F         1 <0>        -0.1759
     30 C20         0.6614   14.1547   -2.8173 C.3       1 <0>        -0.0911
     31 H1          2.8143   13.5779   -6.1283 H         1 <0>         0.0768
     32 H2          1.4812   14.5910   -5.5243 H         1 <0>         0.1018
     33 H3          2.9424   14.3599   -4.5345 H         1 <0>         0.1015
     34 H4         -0.4854    8.6751   -3.3282 H         1 <0>         0.1378
     35 H5         -1.1174    9.8264   -2.1269 H         1 <0>         0.1385
     36 H6          0.8562    7.5330    1.2063 H         1 <0>         0.0837
     37 H7          2.2337    7.7264    0.0929 H         1 <0>         0.1032
     38 H8          1.8713    5.3379    0.8304 H         1 <0>         0.1010
     39 H9          1.7707    5.5556   -0.9339 H         1 <0>         0.0564
     40 H10        -0.3543    5.5324   -2.0305 H         1 <0>         0.0568
     41 H11        -1.8466    5.2974   -1.0883 H         1 <0>         0.1007
     42 H12        -1.6028    7.5062   -0.0627 H         1 <0>         0.0909
     43 H13        -1.4948    7.6888   -1.8317 H         1 <0>         0.0946
     44 H14         2.0904    3.7136    0.0017 H         1 <0>         0.1371
     45 H15         2.1181    1.2530   -0.0118 H         1 <0>         0.1376
     46 H16         0.0021   -0.0041    0.0020 H         1 <0>         0.1395
     47 H17        -2.1859    3.6556    0.0425 H         1 <0>         0.1374
     48 H18        -0.2310   14.6158   -3.2405 H         1 <0>         0.0875
     49 H19         0.5401   14.0506   -1.7391 H         1 <0>         0.0859
     50 H20         1.5282   14.7815   -3.0266 H         1 <0>         0.0880
@<TRIPOS>BOND
     1    1    2 1
     2    1   31 1
     3    1   32 1
     4    1   33 1
     5    2    8 2
     6    2    3 1
     7    3    4 2
     8    3   30 1
     9    4    5 1
    10    5    6 am
    11    5   11 1
    12    6    7 2
    13    6    8 1
    14    8    9 1
    15    9   10 3
    16   11   12 1
    17   11   34 1
    18   11   35 1
    19   12   13 2
    20   12   14 am
    21   14   19 1
    22   14   15 1
    23   15   16 1
    24   15   36 1
    25   15   37 1
    26   16   17 1
    27   16   38 1
    28   16   39 1
    29   17   18 1
    30   17   20 1
    31   18   19 1
    32   18   40 1
    33   18   41 1
    34   19   42 1
    35   19   43 1
    36   20   25 ar
    37   20   21 ar
    38   21   22 ar
    39   21   44 1
    40   22   23 ar
    41   22   45 1
    42   23   24 ar
    43   23   46 1
    44   24   25 ar
    45   24   26 1
    46   25   47 1
    47   26   27 1
    48   26   28 1
    49   26   29 1
    50   30   48 1
    51   30   49 1
    52   30   50 1
@<TRIPOS>MOLECULE
ZINC01429740
   43    46     0     0     0
SMALL
USER_CHARGES
(4R)-4-(4-nitrophenyl)-1-[3-(trifluoromethyl)phenyl]-4,7-dihydro-3H-furo[3,4-e]pyridine-2,5-dione
@<TRIPOS>ATOM
      1 C1         -3.8293   -0.1456   -1.6100 C.ar      1 <0>        -0.1007
      2 C2         -4.7629   -0.2293   -0.5931 C.ar      1 <0>        -0.0518
      3 C3         -4.5179    0.3759    0.6257 C.ar      1 <0>        -0.1673
      4 C4         -3.3388    1.0655    0.8314 C.ar      1 <0>        -0.0642
      5 C5         -2.3994    1.1509   -0.1874 C.ar      1 <0>         0.1026
      6 C6         -2.6510    0.5468   -1.4123 C.ar      1 <0>        -0.0637
      7 N1         -1.2029    1.8499    0.0179 N.am      1 <0>        -0.4834
      8 C7         -0.0188    1.2013    0.0587 C.2       1 <0>         0.5203
      9 O1         -0.0105   -0.0106    0.0975 O.2       1 <0>        -0.4681
     10 C8          1.2891    1.9424    0.0509 C.3       1 <0>        -0.1321
     11 C9          1.2048    3.2198    0.8924 C.3       1 <0>         0.0262
     12 H1          2.0348    3.8804    0.6419 H         1 <0>         0.1288
     13 C10        -0.1051    3.9056    0.5813 C.2       1 <0>        -0.2862
     14 C11        -1.2011    3.2108    0.1884 C.2       1 <0>         0.1618
     15 C12        -2.2975    4.2155   -0.0125 C.3       1 <0>         0.0809
     16 O2         -1.7030    5.4870    0.2928 O.3       1 <0>        -0.3084
     17 C13        -0.4153    5.2729    0.6345 C.2       1 <0>         0.5243
     18 O3          0.3707    6.1475    0.9472 O.2       1 <0>        -0.4484
     19 C14         1.2592    2.8682    2.3568 C.ar      1 <0>        -0.0334
     20 C15         0.2902    2.0506    2.9077 C.ar      1 <0>        -0.1168
     21 C16         0.3426    1.7246    4.2501 C.ar      1 <0>        -0.0474
     22 C17         1.3588    2.2235    5.0434 C.ar      1 <0>        -0.0408
     23 C18         2.3248    3.0454    4.4935 C.ar      1 <0>        -0.0471
     24 C19         2.2748    3.3679    3.1503 C.ar      1 <0>        -0.0984
     25 N2          1.4128    1.8774    6.4815 N.pl3     1 <0>         0.0256
     26 O4          2.3084    2.3167    7.1804 O.2       1 <0>        -0.1527
     27 O5          0.5617    1.1532    6.9660 O.3       1 <0>        -0.1563
     28 C20        -5.5380    0.2827    1.7310 C.3       1 <0>         0.5096
     29 F1         -6.4252    1.3605    1.6389 F         1 <0>        -0.1715
     30 F2         -6.2476   -0.9170    1.6107 F         1 <0>        -0.1708
     31 F3         -4.8883    0.3180    2.9694 F         1 <0>        -0.1732
     32 H2         -4.0238   -0.6191   -2.5611 H         1 <0>         0.1506
     33 H3         -5.6854   -0.7682   -0.7513 H         1 <0>         0.1486
     34 H4         -3.1476    1.5374    1.7838 H         1 <0>         0.1425
     35 H5         -1.9240    0.6150   -2.2081 H         1 <0>         0.1401
     36 H6          2.0680    1.2973    0.4573 H         1 <0>         0.1273
     37 H7          1.5438    2.2074   -0.9753 H         1 <0>         0.1263
     38 H8         -2.6421    4.1976   -1.0464 H         1 <0>         0.1355
     39 H9         -3.1263    4.0114    0.6653 H         1 <0>         0.1307
     40 H10        -0.5058    1.6638    2.2887 H         1 <0>         0.1303
     41 H11        -0.4119    1.0822    4.6796 H         1 <0>         0.1552
     42 H12         3.1187    3.4352    5.1133 H         1 <0>         0.1596
     43 H13         3.0295    4.0100    2.7207 H         1 <0>         0.1557
@<TRIPOS>BOND
     1    1    6 ar
     2    1    2 ar
     3    1   32 1
     4    2    3 ar
     5    2   33 1
     6    3    4 ar
     7    3   28 1
     8    4    5 ar
     9    4   34 1
    10    5    6 ar
    11    5    7 1
    12    6   35 1
    13    7   14 1
    14    7    8 am
    15    8    9 2
    16    8   10 1
    17   10   11 1
    18   10   36 1
    19   10   37 1
    20   11   12 1
    21   11   13 1
    22   11   19 1
    23   13   17 1
    24   13   14 2
    25   14   15 1
    26   15   16 1
    27   15   38 1
    28   15   39 1
    29   16   17 1
    30   17   18 2
    31   19   24 ar
    32   19   20 ar
    33   20   21 ar
    34   20   40 1
    35   21   22 ar
    36   21   41 1
    37   22   23 ar
    38   22   25 1
    39   23   24 ar
    40   23   42 1
    41   24   43 1
    42   25   26 2
    43   25   27 1
    44   28   29 1
    45   28   30 1
    46   28   31 1
@<TRIPOS>MOLECULE
ZINC23005486
   50    53     0     0     0
SMALL
USER_CHARGES
2-[2-[[4-(4-chlorobenzoyl)piperazin-1-yl]methyl]-4-oxo-quinazolin-3-yl]acetonitrile
@<TRIPOS>ATOM
      1 C1          9.3775    0.5901    1.8295 C.ar      1 <0>        -0.1338
      2 C2          8.4690    0.4625    0.7868 C.ar      1 <0>        -0.0711
      3 C3          7.1569    0.8485    0.9434 C.ar      1 <0>        -0.1042
      4 C4          6.7320    1.3750    2.1649 C.ar      1 <0>         0.1474
      5 C5          7.6586    1.5030    3.2233 C.ar      1 <0>        -0.1949
      6 C6          8.9822    1.1063    3.0440 C.ar      1 <0>        -0.0411
      7 C7          7.1791    2.0602    4.4968 C.2       1 <0>         0.5536
      8 O1          7.9261    2.1974    5.4481 O.2       1 <0>        -0.4987
      9 N1          5.8751    2.4151    4.5699 N.am      1 <0>        -0.5434
     10 C8          5.0541    2.2566    3.4990 C.2       1 <0>         0.3911
     11 N2          5.4476    1.7634    2.3643 N.2       1 <0>        -0.4789
     12 C9          3.6112    2.6688    3.6374 C.3       1 <0>         0.0940
     13 N3          2.9198    2.4687    2.3567 N.3       1 <0>        -0.5116
     14 C10         2.8353    1.0410    2.0216 C.3       1 <0>         0.0361
     15 C11         2.2743    0.8848    0.6042 C.3       1 <0>         0.1203
     16 N4          1.0028    1.6194    0.5213 N.am      1 <0>        -0.6067
     17 C12         0.9790    3.0215    0.9649 C.3       1 <0>         0.0786
     18 C13         1.5896    3.0918    2.3736 C.3       1 <0>         0.0372
     19 C14        -0.1097    1.0251    0.0464 C.2       1 <0>         0.5604
     20 O2         -0.0575   -0.1134   -0.3763 O.2       1 <0>        -0.5296
     21 C15        -1.3920    1.7598    0.0338 C.ar      1 <0>        -0.1265
     22 C16        -1.4063    3.1411   -0.1693 C.ar      1 <0>        -0.0941
     23 C17        -2.6062    3.8204   -0.1852 C.ar      1 <0>        -0.1157
     24 C18        -3.7948    3.1368    0.0109 C.ar      1 <0>        -0.0140
     25 C19        -3.7865    1.7674    0.2186 C.ar      1 <0>        -0.1139
     26 C20        -2.5933    1.0763    0.2309 C.ar      1 <0>        -0.0507
     27 Cl1        -5.3011    3.9998   -0.0044 Cl        1 <0>        -0.0589
     28 C21         5.3441    2.9756    5.8149 C.3       1 <0>         0.1884
     29 C22         4.8428    1.8865    6.6688 C.1       1 <0>         0.1769
     30 N5          4.4559    1.0459    7.3278 N.1       1 <0>        -0.3863
     31 H1         10.4027    0.2816    1.6870 H         1 <0>         0.1354
     32 H2          8.7960    0.0558   -0.1588 H         1 <0>         0.1366
     33 H3          6.4594    0.7445    0.1254 H         1 <0>         0.1423
     34 H4          9.6931    1.2032    3.8512 H         1 <0>         0.1389
     35 H5          3.1282    2.0578    4.4142 H         1 <0>         0.0707
     36 H6          3.5587    3.7304    3.9205 H         1 <0>         0.1177
     37 H7          3.8385    0.5926    2.0717 H         1 <0>         0.1134
     38 H8          2.1714    0.5349    2.7379 H         1 <0>         0.0330
     39 H9          2.9923    1.2945   -0.1215 H         1 <0>         0.0834
     40 H10         2.1062   -0.1813    0.3918 H         1 <0>         0.0969
     41 H11         1.5667    3.6367    0.2677 H         1 <0>         0.0872
     42 H12        -0.0600    3.3820    0.9855 H         1 <0>         0.1186
     43 H13         0.9424    2.5553    3.0831 H         1 <0>         0.0443
     44 H14         1.6811    4.1432    2.6836 H         1 <0>         0.0949
     45 H15        -0.4798    3.6757   -0.3182 H         1 <0>         0.1559
     46 H16        -2.6189    4.8882   -0.3467 H         1 <0>         0.1428
     47 H17        -4.7165    1.2397    0.3709 H         1 <0>         0.1424
     48 H18        -2.5881    0.0085    0.3922 H         1 <0>         0.1428
     49 H19         6.1425    3.5176    6.3429 H         1 <0>         0.1497
     50 H20         4.5216    3.6684    5.5837 H         1 <0>         0.1434
@<TRIPOS>BOND
     1    1    6 ar
     2    1    2 ar
     3    1   31 1
     4    2    3 ar
     5    2   32 1
     6    3    4 ar
     7    3   33 1
     8    4   11 1
     9    4    5 ar
    10    5    6 ar
    11    5    7 1
    12    6   34 1
    13    7    8 2
    14    7    9 am
    15    9   10 1
    16    9   28 1
    17   10   11 2
    18   10   12 1
    19   12   13 1
    20   12   35 1
    21   12   36 1
    22   13   18 1
    23   13   14 1
    24   14   15 1
    25   14   37 1
    26   14   38 1
    27   15   16 1
    28   15   39 1
    29   15   40 1
    30   16   17 1
    31   16   19 am
    32   17   18 1
    33   17   41 1
    34   17   42 1
    35   18   43 1
    36   18   44 1
    37   19   20 2
    38   19   21 1
    39   21   26 ar
    40   21   22 ar
    41   22   23 ar
    42   22   45 1
    43   23   24 ar
    44   23   46 1
    45   24   25 ar
    46   24   27 1
    47   25   26 ar
    48   25   47 1
    49   26   48 1
    50   28   29 1
    51   28   49 1
    52   28   50 1
    53   29   30 3
@<TRIPOS>MOLECULE
ZINC32932892
   44    46     0     0     0
SMALL
USER_CHARGES
5-[[(2S)-7-chloro-2-methyl-3,4-dihydro-2H-1,5-benzothiazepin-5-yl]sulfonyl]-1,3-dimethyl-pyrimidine-2,4-dione
@<TRIPOS>ATOM
      1 C1          5.1725    5.1868    2.0728 C.3       1 <0>        -0.1381
      2 C2          3.8606    4.4361    1.8355 C.3       1 <0>        -0.0728
      3 H1          3.5561    4.0733    2.8283 H         1 <0>         0.0971
      4 C3          2.7729    5.4313    1.4603 C.3       1 <0>        -0.1515
      5 C4          1.3733    4.8770    1.4289 C.3       1 <0>         0.1198
      6 N1          1.1977    3.9179    0.3284 N.pl3     1 <0>        -0.9471
      7 C5          1.4519    2.5628    0.5789 C.ar      1 <0>         0.1885
      8 C6          0.3891    1.6774    0.7122 C.ar      1 <0>        -0.0984
      9 C7          0.6340    0.3598    1.0576 C.ar      1 <0>        -0.0058
     10 C8          1.9273   -0.0862    1.2652 C.ar      1 <0>        -0.1066
     11 C9          2.9938    0.7843    1.1069 C.ar      1 <0>        -0.0520
     12 C10         2.7465    2.0973    0.7558 C.ar      1 <0>        -0.0982
     13 S1          4.0898    3.2303    0.4952 S.3       1 <0>        -0.1147
     14 Cl1        -0.6944   -0.7440    1.2326 Cl        1 <0>        -0.0568
     15 S2          0.7117    4.4270   -1.1706 S.o2      1 <0>         2.7154
     16 O1          1.2044    5.7503   -1.3296 O.2       1 <0>        -0.9428
     17 O2          1.0310    3.3811   -2.0780 O.2       1 <0>        -0.9062
     18 C11        -1.0460    4.5447   -1.1363 C.2       1 <0>        -0.8636
     19 C12        -1.6479    5.7330   -0.9156 C.2       1 <0>         0.3152
     20 N2         -3.0141    5.8067   -0.8921 N.am      1 <0>        -0.5274
     21 C13        -3.7631    4.7062   -1.0869 C.2       1 <0>         0.6937
     22 O3         -4.9755    4.7943   -1.0620 O.2       1 <0>        -0.5167
     23 N3         -3.1893    3.5090   -1.3087 N.am      1 <0>        -0.5508
     24 C14        -1.8461    3.3957   -1.3457 C.2       1 <0>         0.5822
     25 O4         -1.3261    2.3139   -1.5517 O.2       1 <0>        -0.4747
     26 C15        -4.0273    2.3257   -1.5175 C.3       1 <0>         0.0714
     27 C16        -3.6672    7.0959   -0.6521 C.3       1 <0>         0.0535
     28 H2          5.0355    5.9171    2.8839 H         1 <0>         0.0739
     29 H3          5.4660    5.7121    1.1520 H         1 <0>         0.0653
     30 H4          5.9591    4.4708    2.3531 H         1 <0>         0.0706
     31 H5          2.7645    6.2567    2.1874 H         1 <0>         0.0909
     32 H6          2.9721    5.8305    0.4548 H         1 <0>         0.0903
     33 H7          1.1619    4.3611    2.3771 H         1 <0>         0.0867
     34 H8          0.6561    5.6996    1.2913 H         1 <0>         0.0903
     35 H9         -0.6227    2.0149    0.5427 H         1 <0>         0.1390
     36 H10         2.1055   -1.1126    1.5503 H         1 <0>         0.1455
     37 H11         4.0065    0.4404    1.2567 H         1 <0>         0.1513
     38 H12        -1.0539    6.6211   -0.7579 H         1 <0>         0.2010
     39 H13        -3.3864    1.4469   -1.6819 H         1 <0>         0.1108
     40 H14        -4.6689    2.4814   -2.3973 H         1 <0>         0.0835
     41 H15        -4.6558    2.1603   -0.6300 H         1 <0>         0.0836
     42 H16        -4.7590    6.9625   -0.6684 H         1 <0>         0.1153
     43 H17        -3.3730    7.8078   -1.4374 H         1 <0>         0.0950
     44 H18        -3.3600    7.4854    0.3297 H         1 <0>         0.0944
@<TRIPOS>BOND
     1    1    2 1
     2    1   28 1
     3    1   29 1
     4    1   30 1
     5    2    3 1
     6    2   13 1
     7    2    4 1
     8    4    5 1
     9    4   31 1
    10    4   32 1
    11    5    6 1
    12    5   33 1
    13    5   34 1
    14    6    7 1
    15    6   15 1
    16    7   12 ar
    17    7    8 ar
    18    8    9 ar
    19    8   35 1
    20    9   10 ar
    21    9   14 1
    22   10   11 ar
    23   10   36 1
    24   11   12 ar
    25   11   37 1
    26   12   13 1
    27   15   16 2
    28   15   17 2
    29   15   18 1
    30   18   24 1
    31   18   19 2
    32   19   20 1
    33   19   38 1
    34   20   21 am
    35   20   27 1
    36   21   22 2
    37   21   23 am
    38   23   24 am
    39   23   26 1
    40   24   25 2
    41   26   39 1
    42   26   40 1
    43   26   41 1
    44   27   42 1
    45   27   43 1
    46   27   44 1
@<TRIPOS>MOLECULE
ZINC31282224
   57    60     0     0     0
SMALL
USER_CHARGES

@<TRIPOS>ATOM
      1 C1         -5.4631  -13.8091    2.2448 C.3       1 <0>        -0.0815
      2 C2         -4.2146  -13.0028    1.9959 C.2       1 <0>         0.1170
      3 C3         -3.2088  -13.3140    1.0731 C.2       1 <0>        -0.2359
      4 C4         -2.2613  -12.3505    1.1478 C.2       1 <0>         0.1324
      5 N1         -2.6580  -11.4564    2.0913 N.pl3     1 <0>        -0.3260
      6 N2         -3.8887  -11.8897    2.6014 N.2       1 <0>        -0.2752
      7 C5         -1.9638  -10.3066    2.4802 C.ar      1 <0>         0.1722
      8 C6         -1.3607   -9.5022    1.5195 C.ar      1 <0>        -0.1260
      9 C7         -0.6758   -8.3693    1.8990 C.ar      1 <0>        -0.0452
     10 C8         -0.5878   -8.0282    3.2509 C.ar      1 <0>        -0.1247
     11 C9         -1.1953   -8.8384    4.2134 C.ar      1 <0>        -0.0760
     12 C10        -1.8830   -9.9671    3.8263 C.ar      1 <0>        -0.1084
     13 C11         0.1461   -6.8145    3.6617 C.2       1 <0>         0.5636
     14 O1         -0.0277   -5.7685    3.0669 O.2       1 <0>        -0.5242
     15 N3          1.0086   -6.8662    4.6960 N.am      1 <0>        -0.6064
     16 C12         1.8088   -5.6898    5.0630 C.3       1 <0>         0.1128
     17 C13         3.2865   -6.0917    5.1034 C.3       1 <0>        -0.1166
     18 C14         3.4603   -7.2879    6.0421 C.3       1 <0>        -0.1068
     19 C15         2.6512   -8.4747    5.5140 C.3       1 <0>        -0.1254
     20 C16         1.1622   -8.0981    5.4818 C.3       1 <0>         0.0930
     21 C17         4.9178   -7.6646    6.1107 C.2       1 <0>         0.5228
     22 O2          5.6519   -7.4204    5.1767 O.2       1 <0>        -0.5309
     23 N4          5.4056   -8.2730    7.2100 N.am      1 <0>        -0.6179
     24 C18         4.5153   -8.6784    8.3093 C.3       1 <0>         0.0687
     25 C19         4.8012  -10.1462    8.6467 C.3       1 <0>         0.0462
     26 O3          6.2033  -10.3132    8.8707 O.3       1 <0>        -0.3768
     27 C20         7.0164  -10.0259    7.7305 C.3       1 <0>         0.0475
     28 C21         6.8432   -8.5570    7.3437 C.3       1 <0>         0.0745
     29 C22        -0.9954  -12.2820    0.3331 C.3       1 <0>        -0.1064
     30 Br1        -3.1791  -14.8162   -0.0751 Br        1 <0>        -0.0073
     31 H1         -6.2562  -13.4652    1.5808 H         1 <0>         0.0867
     32 H2         -5.2597  -14.8626    2.0526 H         1 <0>         0.0862
     33 H3         -5.7766  -13.6828    3.2811 H         1 <0>         0.0814
     34 H4         -1.4292   -9.7665    0.4746 H         1 <0>         0.1402
     35 H5         -0.2070   -7.7454    1.1524 H         1 <0>         0.1446
     36 H6         -1.1293   -8.5777    5.2594 H         1 <0>         0.1438
     37 H7         -2.3567  -10.5915    4.5694 H         1 <0>         0.1418
     38 H8          1.6640   -4.9038    4.3220 H         1 <0>         0.1010
     39 H9          1.5009   -5.3304    6.0449 H         1 <0>         0.0734
     40 H10         3.6167   -6.3648    4.1012 H         1 <0>         0.0821
     41 H11         3.8815   -5.2541    5.4674 H         1 <0>         0.0826
     42 H12         3.1069   -7.0220    7.0383 H         1 <0>         0.0966
     43 H13         2.9874   -8.7254    4.5079 H         1 <0>         0.0797
     44 H14         2.7940   -9.3332    6.1703 H         1 <0>         0.0808
     45 H15         0.8027   -7.9311    6.4972 H         1 <0>         0.0790
     46 H16         0.5906   -8.9015    5.0172 H         1 <0>         0.1038
     47 H17         4.7058   -8.0568    9.1842 H         1 <0>         0.0815
     48 H18         3.4761   -8.5686    7.9996 H         1 <0>         0.0970
     49 H19         4.2529  -10.4265    9.5461 H         1 <0>         0.1095
     50 H20         4.4873  -10.7785    7.8162 H         1 <0>         0.0569
     51 H21         8.0618  -10.2196    7.9707 H         1 <0>         0.1096
     52 H22         6.7105  -10.6577    6.8966 H         1 <0>         0.0565
     53 H23         7.3448   -8.3668    6.3948 H         1 <0>         0.1030
     54 H24         7.2721   -7.9229    8.1197 H         1 <0>         0.0779
     55 H25        -1.2026  -11.7955   -0.6201 H         1 <0>         0.0937
     56 H26        -0.2437  -11.7101    0.8771 H         1 <0>         0.0814
     57 H27        -0.6243  -13.2909    0.1529 H         1 <0>         0.0962
@<TRIPOS>BOND
     1    1    2 1
     2    1   31 1
     3    1   32 1
     4    1   33 1
     5    2    6 2
     6    2    3 1
     7    3    4 2
     8    3   30 1
     9    4    5 1
    10    4   29 1
    11    5    6 1
    12    5    7 1
    13    7   12 ar
    14    7    8 ar
    15    8    9 ar
    16    8   34 1
    17    9   10 ar
    18    9   35 1
    19   10   11 ar
    20   10   13 1
    21   11   12 ar
    22   11   36 1
    23   12   37 1
    24   13   14 2
    25   13   15 am
    26   15   20 1
    27   15   16 1
    28   16   17 1
    29   16   38 1
    30   16   39 1
    31   17   18 1
    32   17   40 1
    33   17   41 1
    34   18   19 1
    35   18   21 1
    36   18   42 1
    37   19   20 1
    38   19   43 1
    39   19   44 1
    40   20   45 1
    41   20   46 1
    42   21   22 2
    43   21   23 am
    44   23   28 1
    45   23   24 1
    46   24   25 1
    47   24   47 1
    48   24   48 1
    49   25   26 1
    50   25   49 1
    51   25   50 1
    52   26   27 1
    53   27   28 1
    54   27   51 1
    55   27   52 1
    56   28   53 1
    57   28   54 1
    58   29   55 1
    59   29   56 1
    60   29   57 1
@<TRIPOS>MOLECULE
ZINC24081242
   74    77     0     0     0
SMALL
USER_CHARGES
(5S)-4-(4-allyloxy-2-methyl-benzoyl)-5-(4-allyloxyphenyl)-3-hydroxy-1-(3-morpholinopropyl)-5H-pyrrol-2-one
@<TRIPOS>ATOM
      1 C1         -0.5693    2.5325    2.4496 C.3       1 <0>        -0.1217
      2 C2         -1.5316    2.6094    1.2924 C.ar      1 <0>        -0.0218
      3 C3         -2.6784    3.3638    1.3984 C.ar      1 <0>        -0.1565
      4 C4         -3.5673    3.4346    0.3317 C.ar      1 <0>         0.1266
      5 C5         -3.3022    2.7447   -0.8464 C.ar      1 <0>        -0.2107
      6 C6         -2.1550    1.9932   -0.9629 C.ar      1 <0>        -0.0420
      7 C7         -1.2613    1.9143    0.1099 C.ar      1 <0>        -0.1384
      8 C8         -0.0330    1.1042   -0.0082 C.2       1 <0>         0.4673
      9 O1         -0.0977   -0.1100    0.0429 O.2       1 <0>        -0.4883
     10 C9          1.2643    1.7622   -0.1932 C.2       1 <0>        -0.4760
     11 C10         2.4770    1.1623   -0.2194 C.2       1 <0>         0.2790
     12 C11         3.5210    2.1867   -0.4316 C.2       1 <0>         0.5078
     13 O2          4.7129    1.9628   -0.5052 O.2       1 <0>        -0.5328
     14 N1          2.9570    3.4046   -0.5254 N.am      1 <0>        -0.6080
     15 C12         1.5052    3.2414   -0.3848 C.3       1 <0>         0.2589
     16 H1          1.1403    3.8356    0.4659 H         1 <0>         0.0669
     17 C13         0.8066    3.7231   -1.6302 C.ar      1 <0>        -0.1036
     18 C14         1.3043    3.3854   -2.8752 C.ar      1 <0>        -0.0557
     19 C15         0.6625    3.8210   -4.0183 C.ar      1 <0>        -0.2093
     20 C16        -0.4759    4.6075   -3.9163 C.ar      1 <0>         0.1163
     21 C17        -0.9700    4.9496   -2.6659 C.ar      1 <0>        -0.1483
     22 C18        -0.3277    4.5068   -1.5258 C.ar      1 <0>        -0.0640
     23 O3         -1.1061    5.0415   -5.0393 O.3       1 <0>        -0.3156
     24 C19        -0.5414    4.6506   -6.2924 C.3       1 <0>         0.0855
     25 C20        -1.3685    5.2205   -7.4158 C.2       1 <0>        -0.1546
     26 C21        -0.7804    5.7884   -8.4394 C.2       1 <0>        -0.1799
     27 C22         3.6664    4.6697   -0.7315 C.3       1 <0>         0.1374
     28 C23         4.0330    5.2756    0.6247 C.3       1 <0>        -0.1335
     29 C24         4.7739    6.5968    0.4095 C.3       1 <0>         0.0598
     30 N2          5.1259    7.1786    1.7117 N.3       1 <0>        -0.5354
     31 C25         3.9211    7.5776    2.4535 C.3       1 <0>         0.0134
     32 C26         4.3296    8.1220    3.8249 C.3       1 <0>         0.0615
     33 O4          5.2416    9.2094    3.6482 O.3       1 <0>        -0.3878
     34 C27         6.4267    8.8559    2.9300 C.3       1 <0>         0.0621
     35 C28         6.0395    8.3190    1.5496 C.3       1 <0>         0.0168
     36 O5          2.6984   -0.1649   -0.0771 O.3       1 <0>        -0.6100
     37 O6         -4.6964    4.1793    0.4403 O.3       1 <0>        -0.3133
     38 C29        -5.5660    4.2083   -0.6933 C.3       1 <0>         0.0853
     39 C30        -6.7580    5.0789   -0.3900 C.2       1 <0>        -0.1554
     40 C31        -7.1761    5.9488   -1.2757 C.2       1 <0>        -0.1791
     41 H2         -0.9498    3.1401    3.2839 H         1 <0>         0.0628
     42 H3          0.4131    2.9151    2.1356 H         1 <0>         0.0825
     43 H4         -0.4688    1.4862    2.7739 H         1 <0>         0.0743
     44 H5         -2.8879    3.9011    2.3115 H         1 <0>         0.1271
     45 H6         -3.9953    2.8024   -1.6726 H         1 <0>         0.1219
     46 H7         -1.9475    1.4617   -1.8798 H         1 <0>         0.1196
     47 H8          2.1930    2.7768   -2.9540 H         1 <0>         0.1181
     48 H9          1.0491    3.5533   -4.9905 H         1 <0>         0.1201
     49 H10        -1.8562    5.5614   -2.5839 H         1 <0>         0.1212
     50 H11        -0.7118    4.7732   -0.5522 H         1 <0>         0.1232
     51 H12         0.4880    5.0313   -6.3654 H         1 <0>         0.0657
     52 H13        -0.5323    3.5530   -6.3641 H         1 <0>         0.0718
     53 H14        -2.4661    5.1596   -7.3763 H         1 <0>         0.1206
     54 H15        -1.3842    6.2044   -9.2594 H         1 <0>         0.1085
     55 H16         0.3172    5.8493   -8.4789 H         1 <0>         0.1013
     56 H17         4.5832    4.4858   -1.3108 H         1 <0>         0.0775
     57 H18         3.0187    5.3679   -1.2820 H         1 <0>         0.0739
     58 H19         3.1162    5.4595    1.2040 H         1 <0>         0.0663
     59 H20         4.6807    4.5774    1.1752 H         1 <0>         0.0779
     60 H21         5.6907    6.4129   -0.1698 H         1 <0>         0.0779
     61 H22         4.1262    7.2950   -0.1410 H         1 <0>         0.0359
     62 H23         3.3862    8.3575    1.8918 H         1 <0>         0.0419
     63 H24         3.2649    6.7045    2.5841 H         1 <0>         0.0926
     64 H25         3.4357    8.4740    4.3608 H         1 <0>         0.0986
     65 H26         4.8152    7.3244    4.4062 H         1 <0>         0.0610
     66 H27         7.0641    9.7449    2.8142 H         1 <0>         0.0969
     67 H28         6.9752    8.0814    3.4861 H         1 <0>         0.0603
     68 H29         6.9432    7.9917    1.0146 H         1 <0>         0.0864
     69 H30         5.5388    9.1109    0.9732 H         1 <0>         0.0412
     70 H31        -5.0251    4.6162   -1.5600 H         1 <0>         0.0681
     71 H32        -5.9061    3.1872   -0.9207 H         1 <0>         0.0710
     72 H33        -7.2770    4.9839    0.5752 H         1 <0>         0.1205
     73 H34        -8.0462    6.5843   -1.0543 H         1 <0>         0.1081
     74 H35        -6.6571    6.0438   -2.2409 H         1 <0>         0.1018
@<TRIPOS>BOND
     1    1    2 1
     2    1   41 1
     3    1   42 1
     4    1   43 1
     5    2    7 ar
     6    2    3 ar
     7    3    4 ar
     8    3   44 1
     9    4    5 ar
    10    4   37 1
    11    5    6 ar
    12    5   45 1
    13    6    7 ar
    14    6   46 1
    15    7    8 1
    16    8    9 2
    17    8   10 1
    18   10   15 1
    19   10   11 2
    20   11   12 1
    21   11   36 1
    22   12   13 2
    23   12   14 am
    24   14   15 1
    25   14   27 1
    26   15   16 1
    27   15   17 1
    28   17   22 ar
    29   17   18 ar
    30   18   19 ar
    31   18   47 1
    32   19   20 ar
    33   19   48 1
    34   20   21 ar
    35   20   23 1
    36   21   22 ar
    37   21   49 1
    38   22   50 1
    39   23   24 1
    40   24   25 1
    41   24   51 1
    42   24   52 1
    43   25   26 2
    44   25   53 1
    45   26   54 1
    46   26   55 1
    47   27   28 1
    48   27   56 1
    49   27   57 1
    50   28   29 1
    51   28   58 1
    52   28   59 1
    53   29   30 1
    54   29   60 1
    55   29   61 1
    56   30   35 1
    57   30   31 1
    58   31   32 1
    59   31   62 1
    60   31   63 1
    61   32   33 1
    62   32   64 1
    63   32   65 1
    64   33   34 1
    65   34   35 1
    66   34   66 1
    67   34   67 1
    68   35   68 1
    69   35   69 1
    70   37   38 1
    71   38   39 1
    72   38   70 1
    73   38   71 1
    74   39   40 2
    75   39   72 1
    76   40   73 1
    77   40   74 1
@<TRIPOS>MOLECULE
ZINC36058707
   64    67     0     0     0
SMALL
USER_CHARGES

@<TRIPOS>ATOM
      1 C1          0.2958    2.3370   -0.3551 C.3       1 <0>        -0.0947
      2 C2          0.2240    0.8380   -0.2174 C.2       1 <0>         0.3112
      3 C3         -0.9975    0.2254   -0.0134 C.2       1 <0>        -0.4057
      4 C4         -1.0176   -1.2811    0.1180 C.3       1 <0>         0.2702
      5 H1         -1.6742   -1.6768   -0.6569 H         1 <0>         0.0740
      6 N1          0.2876   -1.9868    0.0163 N.pl3     1 <0>        -0.4994
      7 C5          0.5060   -3.3471    0.1052 C.2       1 <0>         0.2346
      8 C6          1.7779   -3.7871   -0.0155 C.2       1 <0>        -0.3009
      9 S1          2.6730   -2.2654   -0.2565 S.3       1 <0>         0.1426
     10 C7          1.3826   -1.1944   -0.1873 C.2       1 <0>         0.3386
     11 N2          1.3304    0.1171   -0.2982 N.2       1 <0>        -0.5953
     12 C8         -0.6057   -4.2837    0.3237 C.2       1 <0>        -0.4634
     13 C9         -0.3541   -5.5895    0.5373 C.2       1 <0>         0.5004
     14 O1          0.9135   -6.0597    0.4425 O.3       1 <0>        -0.7024
     15 N3         -1.3905   -6.4516    0.8538 N.pl3     1 <0>        -0.7508
     16 C10        -1.1041   -7.8474    1.1941 C.3       1 <0>         0.1773
     17 C11        -2.3994   -8.5960    1.3757 C.ar      1 <0>        -0.0478
     18 C12        -3.0131   -8.6618    2.6172 C.ar      1 <0>        -0.1579
     19 C13        -4.2004   -9.3576    2.7455 C.ar      1 <0>         0.0928
     20 N4         -4.7483   -9.9543    1.7050 N.ar      1 <0>        -0.4896
     21 C14        -4.1928   -9.9127    0.5098 C.ar      1 <0>         0.0928
     22 C15        -3.0086   -9.2306    0.3040 C.ar      1 <0>        -0.1565
     23 C16        -1.6257   -1.6223    1.4540 C.ar      1 <0>        -0.0531
     24 C17        -2.9184   -2.1088    1.5213 C.ar      1 <0>        -0.1014
     25 C18        -3.4791   -2.4226    2.7449 C.ar      1 <0>        -0.0909
     26 C19        -2.7501   -2.2509    3.9074 C.ar      1 <0>        -0.1990
     27 C20        -1.4547   -1.7639    3.8471 C.ar      1 <0>         0.0980
     28 C21        -0.8879   -1.4537    2.6142 C.ar      1 <0>         0.0931
     29 O2          0.3855   -0.9806    2.5493 O.3       1 <0>        -0.3147
     30 C22         0.5708    0.4172    2.7812 C.3       1 <0>         0.0362
     31 O3         -0.7365   -1.5945    4.9893 O.3       1 <0>        -0.3094
     32 C23        -1.3803   -1.9391    6.2177 C.3       1 <0>         0.0288
     33 C24        -2.1775    0.9745    0.0695 C.2       1 <0>         0.5351
     34 O4         -2.1276    2.1923    0.0683 O.2       1 <0>        -0.5533
     35 O5         -3.3718    0.3472    0.1508 O.3       1 <0>        -0.3515
     36 C25        -4.5345    1.1739    0.2326 C.3       1 <0>         0.0976
     37 C26        -5.7634    0.3056    0.3159 C.2       1 <0>        -0.1457
     38 C27        -6.7033    0.5823    1.1854 C.2       1 <0>        -0.1811
     39 H2          1.3312    2.6381   -0.5142 H         1 <0>         0.0648
     40 H3         -0.3093    2.6532   -1.2048 H         1 <0>         0.0835
     41 H4         -0.0827    2.8039    0.5543 H         1 <0>         0.0868
     42 H5          2.1544   -4.7985    0.0245 H         1 <0>         0.2359
     43 H6         -1.6243   -3.9248    0.3129 H         1 <0>         0.0866
     44 H7         -2.3060   -6.1312    0.8501 H         1 <0>         0.3852
     45 H8         -0.5286   -8.3067    0.3905 H         1 <0>         0.0687
     46 H9         -0.5298   -7.8852    2.1198 H         1 <0>         0.0597
     47 H10        -2.5689   -8.1757    3.4732 H         1 <0>         0.1347
     48 H11        -4.6848   -9.4135    3.7092 H         1 <0>         0.1534
     49 H12        -4.6710  -10.4140   -0.3188 H         1 <0>         0.1539
     50 H13        -2.5611   -9.1960   -0.6784 H         1 <0>         0.1357
     51 H14        -3.4912   -2.2436    0.6157 H         1 <0>         0.1243
     52 H15        -4.4890   -2.8024    2.7934 H         1 <0>         0.1211
     53 H16        -3.1909   -2.4962    4.8624 H         1 <0>         0.1241
     54 H17         0.3140    0.6512    3.8144 H         1 <0>         0.0375
     55 H18         1.6122    0.6811    2.5970 H         1 <0>         0.0865
     56 H19        -0.0724    0.9854    2.1093 H         1 <0>         0.0495
     57 H20        -0.6989   -1.7568    7.0487 H         1 <0>         0.0956
     58 H21        -2.2758   -1.3302    6.3418 H         1 <0>         0.0501
     59 H22        -1.6573   -2.9932    6.1995 H         1 <0>         0.0531
     60 H23        -4.4723    1.8016    1.1216 H         1 <0>         0.0635
     61 H24        -4.5949    1.8048   -0.6542 H         1 <0>         0.0692
     62 H25        -5.8692   -0.5449   -0.3413 H         1 <0>         0.1173
     63 H26        -7.5840   -0.0400    1.2451 H         1 <0>         0.1039
     64 H27        -6.5975    1.4328    1.8426 H         1 <0>         0.0964
@<TRIPOS>BOND
     1    1    2 1
     2    1   39 1
     3    1   40 1
     4    1   41 1
     5    2   11 1
     6    2    3 2
     7    3    4 1
     8    3   33 1
     9    4    5 1
    10    4    6 1
    11    4   23 1
    12    6   10 1
    13    6    7 1
    14    7    8 2
    15    7   12 1
    16    8    9 1
    17    8   42 1
    18    9   10 1
    19   10   11 2
    20   12   13 2
    21   12   43 1
    22   13   14 1
    23   13   15 1
    24   15   16 1
    25   15   44 1
    26   16   17 1
    27   16   45 1
    28   16   46 1
    29   17   22 ar
    30   17   18 ar
    31   18   19 ar
    32   18   47 1
    33   19   20 ar
    34   19   48 1
    35   20   21 ar
    36   21   22 ar
    37   21   49 1
    38   22   50 1
    39   23   28 ar
    40   23   24 ar
    41   24   25 ar
    42   24   51 1
    43   25   26 ar
    44   25   52 1
    45   26   27 ar
    46   26   53 1
    47   27   28 ar
    48   27   31 1
    49   28   29 1
    50   29   30 1
    51   30   54 1
    52   30   55 1
    53   30   56 1
    54   31   32 1
    55   32   57 1
    56   32   58 1
    57   32   59 1
    58   33   34 2
    59   33   35 1
    60   35   36 1
    61   36   37 1
    62   36   60 1
    63   36   61 1
    64   37   38 2
    65   37   62 1
    66   38   63 1
    67   38   64 1
@<TRIPOS>MOLECULE
ZINC40003215
   60    63     0     0     0
SMALL
USER_CHARGES

@<TRIPOS>ATOM
      1 C1         -0.4568    1.6049    0.3121 C.3       1 <0>        -0.1526
      2 C2         -0.3782    0.0794    0.2245 C.3       1 <0>        -0.1184
      3 C3         -1.7846   -0.5113    0.3418 C.3       1 <0>        -0.1050
      4 C4         -1.7060   -2.0368    0.2542 C.3       1 <0>        -0.1106
      5 S1         -3.3736   -2.7371    0.3933 S.3       1 <0>         0.0278
      6 C5         -3.1166   -4.4763    0.2758 C.2       1 <0>        -0.0271
      7 N1         -1.9928   -5.1637    0.1277 N.2       1 <0>        -0.2495
      8 N2         -1.9856   -6.4231    0.0604 N.2       1 <0>        -0.3112
      9 C6         -3.0988   -7.1356    0.1334 C.2       1 <0>         0.3244
     10 S2         -4.2980   -5.8207    0.3303 S.3       1 <0>         0.0833
     11 N3         -3.2834   -8.5121    0.0786 N.am      1 <0>        -0.4985
     12 C7         -2.2272   -9.5197   -0.0737 C.3       1 <0>         0.2672
     13 H1         -1.5302   -9.4615    0.7623 H         1 <0>         0.0907
     14 C8         -2.9228  -10.8609   -0.0779 C.2       1 <0>        -0.4820
     15 C9         -4.2474  -10.6140    0.0601 C.2       1 <0>         0.2707
     16 C10        -4.4613   -9.1567    0.1618 C.2       1 <0>         0.5108
     17 O1         -5.5425   -8.6185    0.2983 O.2       1 <0>        -0.4853
     18 O2         -5.2197  -11.5540    0.1026 O.3       1 <0>        -0.6328
     19 C11        -2.2872  -12.1751   -0.2070 C.2       1 <0>         0.5098
     20 O3         -2.4999  -12.8600   -1.1904 O.2       1 <0>        -0.4670
     21 C12        -1.3890  -12.6681    0.8557 C.ar      1 <0>        -0.1755
     22 C13        -1.2407  -11.9417    2.0411 C.ar      1 <0>        -0.0255
     23 C14        -0.4024  -12.4052    3.0298 C.ar      1 <0>        -0.1658
     24 C15         0.2963  -13.5940    2.8509 C.ar      1 <0>         0.1435
     25 C16         0.1519  -14.3192    1.6733 C.ar      1 <0>        -0.2242
     26 C17        -0.6887  -13.8657    0.6820 C.ar      1 <0>        -0.0300
     27 O4          1.1216  -14.0474    3.8279 O.3       1 <0>        -0.3110
     28 C18         1.8087  -15.2753    3.5787 C.3       1 <0>         0.0846
     29 C19         2.6720  -15.6177    4.7655 C.2       1 <0>        -0.1541
     30 C20         2.6844  -16.8405    5.2354 C.2       1 <0>        -0.1737
     31 C21        -1.4947   -9.3101   -1.3740 C.ar      1 <0>        -0.0778
     32 C22        -2.2037   -9.0377   -2.5293 C.ar      1 <0>        -0.0756
     33 C23        -1.5347   -8.8457   -3.7226 C.ar      1 <0>        -0.1430
     34 C24        -0.1502   -8.9260   -3.7610 C.ar      1 <0>         0.0970
     35 C25         0.5589   -9.1990   -2.6002 C.ar      1 <0>        -0.1427
     36 C26        -0.1145   -9.3851   -1.4085 C.ar      1 <0>        -0.0825
     37 O5          0.5103   -8.7379   -4.9337 O.3       1 <0>        -0.5009
     38 H2          0.5452    2.0257    0.2285 H         1 <0>         0.0557
     39 H3         -1.0788    1.9838   -0.4988 H         1 <0>         0.0550
     40 H4         -0.8927    1.8919    1.2690 H         1 <0>         0.0551
     41 H5          0.0578   -0.2076   -0.7324 H         1 <0>         0.0659
     42 H6          0.2439   -0.2995    1.0354 H         1 <0>         0.0660
     43 H7         -2.2206   -0.2243    1.2987 H         1 <0>         0.0743
     44 H8         -2.4067   -0.1324   -0.4691 H         1 <0>         0.0742
     45 H9         -1.2701   -2.3238   -0.7027 H         1 <0>         0.0953
     46 H10        -1.0840   -2.4157    1.0651 H         1 <0>         0.0957
     47 H11        -1.7827  -11.0180    2.1808 H         1 <0>         0.1393
     48 H12        -0.2869  -11.8445    3.9456 H         1 <0>         0.1320
     49 H13         0.6969  -15.2418    1.5380 H         1 <0>         0.1273
     50 H14        -0.8040  -14.4321   -0.2303 H         1 <0>         0.1334
     51 H15         1.0824  -16.0716    3.4159 H         1 <0>         0.0686
     52 H16         2.4348  -15.1680    2.6929 H         1 <0>         0.0733
     53 H17         3.2805  -14.8551    5.2286 H         1 <0>         0.1195
     54 H18         3.3031  -17.0859    6.0859 H         1 <0>         0.1069
     55 H19         2.0759  -17.6032    4.7723 H         1 <0>         0.0998
     56 H20        -3.2815   -8.9753   -2.4990 H         1 <0>         0.1158
     57 H21        -2.0889   -8.6336   -4.6250 H         1 <0>         0.1236
     58 H22         1.6367   -9.2621   -2.6275 H         1 <0>         0.1254
     59 H23         0.4373   -9.5933   -0.5037 H         1 <0>         0.1264
     60 H24         0.7563   -7.8183   -5.1035 H         1 <0>         0.3840
@<TRIPOS>BOND
     1    1    2 1
     2    1   38 1
     3    1   39 1
     4    1   40 1
     5    2    3 1
     6    2   41 1
     7    2   42 1
     8    3    4 1
     9    3   43 1
    10    3   44 1
    11    4    5 1
    12    4   45 1
    13    4   46 1
    14    5    6 1
    15    6   10 1
    16    6    7 2
    17    7    8 1
    18    8    9 2
    19    9   10 1
    20    9   11 1
    21   11   16 am
    22   11   12 1
    23   12   13 1
    24   12   14 1
    25   12   31 1
    26   14   15 2
    27   14   19 1
    28   15   16 1
    29   15   18 1
    30   16   17 2
    31   19   20 2
    32   19   21 1
    33   21   26 ar
    34   21   22 ar
    35   22   23 ar
    36   22   47 1
    37   23   24 ar
    38   23   48 1
    39   24   25 ar
    40   24   27 1
    41   25   26 ar
    42   25   49 1
    43   26   50 1
    44   27   28 1
    45   28   29 1
    46   28   51 1
    47   28   52 1
    48   29   30 2
    49   29   53 1
    50   30   54 1
    51   30   55 1
    52   31   36 ar
    53   31   32 ar
    54   32   33 ar
    55   32   56 1
    56   33   34 ar
    57   33   57 1
    58   34   35 ar
    59   34   37 1
    60   35   36 ar
    61   35   58 1
    62   36   59 1
    63   37   60 1
@<TRIPOS>MOLECULE
ZINC40080513
   73    75     0     0     0
SMALL
USER_CHARGES

@<TRIPOS>ATOM
      1 C1         -1.1332    2.1480    2.6076 C.3       1 <0>        -0.1515
      2 C2         -0.9320    0.6947    2.1736 C.3       1 <0>        -0.1217
      3 C3         -2.2853   -0.0178    2.1339 C.3       1 <0>        -0.1195
      4 C4         -2.0841   -1.4711    1.7000 C.3       1 <0>         0.0602
      5 O1         -3.3481   -2.1366    1.6629 O.3       1 <0>        -0.3194
      6 C5         -3.3462   -3.4444    1.2937 C.ar      1 <0>         0.1171
      7 C6         -2.1517   -4.0759    0.9793 C.ar      1 <0>        -0.2089
      8 C7         -2.1524   -5.4056    0.6047 C.ar      1 <0>        -0.0772
      9 C8         -3.3423   -6.1070    0.5427 C.ar      1 <0>        -0.1051
     10 C9         -4.5343   -5.4798    0.8551 C.ar      1 <0>        -0.0505
     11 C10        -4.5382   -4.1519    1.2362 C.ar      1 <0>        -0.1504
     12 C11        -3.3402   -7.5573    0.1333 C.3       1 <0>         0.2682
     13 H1         -2.3908   -7.8121   -0.3376 H         1 <0>         0.0644
     14 C12        -3.5750   -8.4376    1.3386 C.2       1 <0>        -0.5046
     15 C13        -4.7144   -9.1283    1.1017 C.2       1 <0>         0.2655
     16 C14        -5.2509   -8.7415   -0.2200 C.2       1 <0>         0.5152
     17 O2         -6.2658   -9.1866   -0.7180 O.2       1 <0>        -0.5194
     18 N1         -4.4491   -7.8224   -0.7909 N.am      1 <0>        -0.6115
     19 C15        -4.6476   -7.1975   -2.1010 C.3       1 <0>         0.1401
     20 C16        -3.9493   -8.0330   -3.1757 C.3       1 <0>         0.0438
     21 O3         -4.5787   -9.3126   -3.2680 O.3       1 <0>        -0.3571
     22 C17        -3.9995  -10.1760   -4.2483 C.3       1 <0>         0.0623
     23 C18        -4.7486  -11.5100   -4.2595 C.3       1 <0>         0.0785
     24 O4         -6.0942  -11.2971   -4.6910 O.3       1 <0>        -0.5636
     25 O5         -5.2733  -10.0302    1.9413 O.3       1 <0>        -0.6561
     26 C19        -2.7311   -8.5264    2.5344 C.2       1 <0>         0.5055
     27 O6         -3.1716   -8.1865    3.6167 O.2       1 <0>        -0.4796
     28 C20        -1.3471   -9.0282    2.4255 C.ar      1 <0>        -0.1714
     29 C21        -0.8750   -9.5237    1.2062 C.ar      1 <0>        -0.0258
     30 C22         0.4163   -9.9907    1.1089 C.ar      1 <0>        -0.1686
     31 C23         1.2507   -9.9702    2.2210 C.ar      1 <0>         0.1404
     32 C24         0.7850   -9.4788    3.4355 C.ar      1 <0>        -0.2247
     33 C25        -0.5029   -9.0041    3.5398 C.ar      1 <0>        -0.0348
     34 O7          2.5229  -10.4315    2.1208 O.3       1 <0>        -0.3137
     35 C26         3.3260  -10.3815    3.3018 C.3       1 <0>         0.0619
     36 C27         4.7174  -10.9398    2.9963 C.3       1 <0>        -0.0945
     37 C28         5.6150  -10.7719    4.2240 C.3       1 <0>        -0.1463
     38 C29         4.6054  -12.4248    2.6457 C.3       1 <0>        -0.1475
     39 H2         -0.1690    2.6556    2.6359 H         1 <0>         0.0554
     40 H3         -1.7884    2.6519    1.8971 H         1 <0>         0.0551
     41 H4         -1.5856    2.1718    3.5990 H         1 <0>         0.0556
     42 H5         -0.4796    0.6709    1.1822 H         1 <0>         0.0640
     43 H6         -0.2767    0.1908    2.8841 H         1 <0>         0.0646
     44 H7         -2.7377    0.0060    3.1253 H         1 <0>         0.0729
     45 H8         -2.9406    0.4861    1.4234 H         1 <0>         0.0722
     46 H9         -1.6317   -1.4949    0.7085 H         1 <0>         0.0586
     47 H10        -1.4289   -1.9750    2.4105 H         1 <0>         0.0594
     48 H11        -1.2220   -3.5283    1.0269 H         1 <0>         0.1207
     49 H12        -1.2227   -5.8977    0.3598 H         1 <0>         0.1207
     50 H13        -5.4625   -6.0296    0.8056 H         1 <0>         0.1247
     51 H14        -5.4690   -3.6637    1.4844 H         1 <0>         0.1249
     52 H15        -5.7141   -7.1425   -2.3194 H         1 <0>         0.0855
     53 H16        -4.2264   -6.1922   -2.0916 H         1 <0>         0.0887
     54 H17        -4.0210   -7.5228   -4.1362 H         1 <0>         0.0521
     55 H18        -2.9001   -8.1625   -2.9105 H         1 <0>         0.0491
     56 H19        -4.0722   -9.7102   -5.2311 H         1 <0>         0.0494
     57 H20        -2.9512  -10.3499   -4.0054 H         1 <0>         0.0581
     58 H21        -4.2527  -12.1994   -4.9428 H         1 <0>         0.0547
     59 H22        -4.7518  -11.9333   -3.2551 H         1 <0>         0.0571
     60 H23        -6.6292  -12.1020   -4.7223 H         1 <0>         0.3762
     61 H24        -1.5226   -9.5402    0.3420 H         1 <0>         0.1404
     62 H25         0.7816  -10.3739    0.1676 H         1 <0>         0.1291
     63 H26         1.4361   -9.4653    4.2971 H         1 <0>         0.1249
     64 H27        -0.8623   -8.6181    4.4823 H         1 <0>         0.1308
     65 H28         3.4147   -9.3483    3.6373 H         1 <0>         0.0613
     66 H29         2.8586  -10.9789    4.0846 H         1 <0>         0.0623
     67 H30         5.1490  -10.3991    2.1540 H         1 <0>         0.0803
     68 H31         5.1834  -11.3126    5.0663 H         1 <0>         0.0580
     69 H32         6.6063  -11.1697    4.0064 H         1 <0>         0.0632
     70 H33         5.6948   -9.7140    4.4738 H         1 <0>         0.0574
     71 H34         5.5966  -12.8225    2.4281 H         1 <0>         0.0550
     72 H35         4.1738  -12.9655    3.4880 H         1 <0>         0.0541
     73 H36         3.9659  -12.5444    1.7711 H         1 <0>         0.0636
@<TRIPOS>BOND
     1    1    2 1
     2    1   39 1
     3    1   40 1
     4    1   41 1
     5    2    3 1
     6    2   42 1
     7    2   43 1
     8    3    4 1
     9    3   44 1
    10    3   45 1
    11    4    5 1
    12    4   46 1
    13    4   47 1
    14    5    6 1
    15    6   11 ar
    16    6    7 ar
    17    7    8 ar
    18    7   48 1
    19    8    9 ar
    20    8   49 1
    21    9   10 ar
    22    9   12 1
    23   10   11 ar
    24   10   50 1
    25   11   51 1
    26   12   13 1
    27   12   18 1
    28   12   14 1
    29   14   15 2
    30   14   26 1
    31   15   16 1
    32   15   25 1
    33   16   17 2
    34   16   18 am
    35   18   19 1
    36   19   20 1
    37   19   52 1
    38   19   53 1
    39   20   21 1
    40   20   54 1
    41   20   55 1
    42   21   22 1
    43   22   23 1
    44   22   56 1
    45   22   57 1
    46   23   24 1
    47   23   58 1
    48   23   59 1
    49   24   60 1
    50   26   27 2
    51   26   28 1
    52   28   33 ar
    53   28   29 ar
    54   29   30 ar
    55   29   61 1
    56   30   31 ar
    57   30   62 1
    58   31   32 ar
    59   31   34 1
    60   32   33 ar
    61   32   63 1
    62   33   64 1
    63   34   35 1
    64   35   36 1
    65   35   65 1
    66   35   66 1
    67   36   37 1
    68   36   38 1
    69   36   67 1
    70   37   68 1
    71   37   69 1
    72   37   70 1
    73   38   71 1
    74   38   72 1
    75   38   73 1
@<TRIPOS>MOLECULE
ZINC40103006
   58    61     0     0     0
SMALL
USER_CHARGES

@<TRIPOS>ATOM
      1 C1          1.9455    1.3832   -3.2359 C.ar      1 <0>        -0.0981
      2 C2          2.5024    2.0964   -2.1943 C.ar      1 <0>        -0.0985
      3 C3          3.0868    1.4212   -1.1207 C.ar      1 <0>        -0.0955
      4 C4          3.1044    0.0254   -1.1069 C.ar      1 <0>        -0.1025
      5 C5          2.5426   -0.6798   -2.1572 C.ar      1 <0>         0.1091
      6 C6          1.9638    0.0006   -3.2207 C.ar      1 <0>        -0.1948
      7 O1          2.5580   -2.0388   -2.1480 O.3       1 <0>        -0.3089
      8 C7          1.9604   -2.7019   -3.2639 C.3       1 <0>         0.1006
      9 C8          2.0711   -4.1935   -3.0801 C.ar      1 <0>        -0.0878
     10 C9          3.1780   -4.8686   -3.5597 C.ar      1 <0>        -0.0813
     11 C10         3.2801   -6.2366   -3.3914 C.ar      1 <0>        -0.1137
     12 C11         2.2741   -6.9305   -2.7428 C.ar      1 <0>        -0.0269
     13 C12         1.1665   -6.2543   -2.2630 C.ar      1 <0>        -0.1142
     14 C13         1.0683   -4.8855   -2.4269 C.ar      1 <0>        -0.0818
     15 Cl1         2.4013   -8.6489   -2.5315 Cl        1 <0>        -0.0705
     16 C14         3.6852    2.1819   -0.0028 C.2       1 <0>         0.5052
     17 O2          4.1295    1.5931    0.9648 O.2       1 <0>        -0.4657
     18 C15         3.7431    3.6454   -0.0602 C.2       1 <0>        -0.5039
     19 C16         4.8589    4.4063   -0.1526 C.2       1 <0>         0.2675
     20 C17         4.4725    5.8329   -0.1832 C.2       1 <0>         0.5134
     21 O3          5.2489    6.7640   -0.2627 O.2       1 <0>        -0.5341
     22 N1          3.1340    5.9476   -0.1103 N.am      1 <0>        -0.6070
     23 C18         2.5685    4.5954   -0.0344 C.3       1 <0>         0.3087
     24 H1          1.9179    4.4102   -0.8890 H         1 <0>         0.0946
     25 C19         1.7975    4.4312    1.2500 C.2       1 <0>        -0.1010
     26 C20         0.6806    3.7008    1.4876 C.2       1 <0>        -0.1772
     27 C21         0.1400    3.6974    2.7597 C.2       1 <0>        -0.1445
     28 C22         0.7426    4.4246    3.7320 C.2       1 <0>        -0.2048
     29 S1          2.1225    5.1417    2.8552 S.3       1 <0>         0.0434
     30 C23         2.3748    7.2006   -0.1129 C.3       1 <0>         0.1377
     31 C24         2.0271    7.5832   -1.5529 C.3       1 <0>         0.0452
     32 O4          1.1442    6.6051   -2.1058 O.3       1 <0>        -0.3701
     33 C25         0.7556    6.8694   -3.4553 C.3       1 <0>         0.0612
     34 C26        -0.1841    5.7641   -3.9413 C.3       1 <0>         0.0785
     35 O5         -1.3957    5.8021   -3.1846 O.3       1 <0>        -0.5645
     36 O6          6.1261    3.9360   -0.2075 O.3       1 <0>        -0.6505
     37 H2          1.4898    1.9064   -4.0636 H         1 <0>         0.1238
     38 H3          2.4868    3.1761   -2.2096 H         1 <0>         0.1370
     39 H4          3.5551   -0.5026   -0.2796 H         1 <0>         0.1371
     40 H5          1.5259   -0.5523   -4.0387 H         1 <0>         0.1239
     41 H6          0.9095   -2.4213   -3.3332 H         1 <0>         0.0723
     42 H7          2.4756   -2.4094   -4.1789 H         1 <0>         0.0726
     43 H8          3.9631   -4.3269   -4.0664 H         1 <0>         0.1360
     44 H9          4.1448   -6.7639   -3.7665 H         1 <0>         0.1363
     45 H10         0.3808   -6.7955   -1.7569 H         1 <0>         0.1360
     46 H11         0.2059   -4.3569   -2.0482 H         1 <0>         0.1355
     47 H12         0.2198    3.1303    0.6947 H         1 <0>         0.1273
     48 H13        -0.7496    3.1242    2.9757 H         1 <0>         0.1243
     49 H14         0.4630    4.5375    4.7691 H         1 <0>         0.1769
     50 H15         1.4568    7.0704    0.4602 H         1 <0>         0.0853
     51 H16         2.9757    7.9904    0.3379 H         1 <0>         0.0955
     52 H17         1.5405    8.5585   -1.5623 H         1 <0>         0.0562
     53 H18         2.9395    7.6266   -2.1477 H         1 <0>         0.0545
     54 H19         0.2426    7.8300   -3.5041 H         1 <0>         0.0517
     55 H20         1.6416    6.8980   -4.0895 H         1 <0>         0.0612
     56 H21        -0.4098    5.9171   -4.9966 H         1 <0>         0.0562
     57 H22         0.2964    4.7947   -3.8094 H         1 <0>         0.0570
     58 H23        -2.0398    5.1274   -3.4394 H         1 <0>         0.3762
@<TRIPOS>BOND
     1    1    6 ar
     2    1    2 ar
     3    1   37 1
     4    2    3 ar
     5    2   38 1
     6    3    4 ar
     7    3   16 1
     8    4    5 ar
     9    4   39 1
    10    5    6 ar
    11    5    7 1
    12    6   40 1
    13    7    8 1
    14    8    9 1
    15    8   41 1
    16    8   42 1
    17    9   14 ar
    18    9   10 ar
    19   10   11 ar
    20   10   43 1
    21   11   12 ar
    22   11   44 1
    23   12   13 ar
    24   12   15 1
    25   13   14 ar
    26   13   45 1
    27   14   46 1
    28   16   17 2
    29   16   18 1
    30   18   23 1
    31   18   19 2
    32   19   20 1
    33   19   36 1
    34   20   21 2
    35   20   22 am
    36   22   23 1
    37   22   30 1
    38   23   24 1
    39   23   25 1
    40   25   29 1
    41   25   26 2
    42   26   27 1
    43   26   47 1
    44   27   28 2
    45   27   48 1
    46   28   29 1
    47   28   49 1
    48   30   31 1
    49   30   50 1
    50   30   51 1
    51   31   32 1
    52   31   52 1
    53   31   53 1
    54   32   33 1
    55   33   34 1
    56   33   54 1
    57   33   55 1
    58   34   35 1
    59   34   56 1
    60   34   57 1
    61   35   58 1
@<TRIPOS>MOLECULE
ZINC09358977
   70    74     0     0     0
SMALL
USER_CHARGES
(5R)-5-(3-butoxyphenyl)-3-hydroxy-1-(3-imidazol-1-ylpropyl)-4-[(2R)-2-methyl2,3-dihydrobenzofuran-5-carbonyl]-5H-pyrrol-2-one
@<TRIPOS>ATOM
      1 C1          5.0107   10.7905    4.7521 C.3       1 <0>        -0.1530
      2 C2          4.3939    9.4038    4.9461 C.3       1 <0>        -0.1223
      3 C3          3.8903    8.8769    3.6008 C.3       1 <0>        -0.1202
      4 C4          3.2736    7.4903    3.7947 C.3       1 <0>         0.0588
      5 O1          2.8033    6.9982    2.5383 O.3       1 <0>        -0.3174
      6 C5          2.2234    5.7691    2.5350 C.ar      1 <0>         0.1243
      7 C6          2.1089    5.0516    3.7170 C.ar      1 <0>        -0.2150
      8 C7          1.5187    3.8028    3.7111 C.ar      1 <0>        -0.0832
      9 C8          1.0374    3.2698    2.5294 C.ar      1 <0>        -0.1232
     10 C9          1.1549    3.9805    1.3494 C.ar      1 <0>        -0.0373
     11 C10         1.7445    5.2300    1.3500 C.ar      1 <0>        -0.1454
     12 C11         0.6340    3.3944    0.0625 C.3       1 <0>         0.2656
     13 H1          1.0451    3.9804   -0.7727 H         1 <0>         0.0697
     14 C12        -0.8769    3.3895    0.0664 C.2       1 <0>        -0.4974
     15 C13        -1.2635    2.0977   -0.0476 C.2       1 <0>         0.2640
     16 C14        -0.0646    1.2363   -0.1171 C.2       1 <0>         0.5132
     17 O2         -0.0807    0.0257   -0.2189 O.2       1 <0>        -0.5334
     18 N1          1.0474    1.9913   -0.0568 N.am      1 <0>        -0.6107
     19 C15         2.4267    1.4998   -0.1026 C.3       1 <0>         0.1395
     20 C16         2.9022    1.4495   -1.5559 C.3       1 <0>        -0.1547
     21 C17         4.3428    0.9362   -1.6037 C.3       1 <0>         0.1054
     22 N2          4.7981    0.8880   -2.9954 N.pl3     1 <0>        -0.4545
     23 C18         4.6842   -0.1744   -3.8509 C.2       1 <0>        -0.0527
     24 C19         5.2254    0.2093   -5.0228 C.2       1 <0>        -0.0351
     25 N3          5.6664    1.4684   -4.8837 N.2       1 <0>        -0.4992
     26 C20         5.4138    1.8814   -3.6719 C.2       1 <0>         0.1800
     27 O3         -2.5443    1.6633   -0.0872 O.3       1 <0>        -0.6512
     28 C21        -1.7549    4.5596    0.1667 C.2       1 <0>         0.5090
     29 O4         -2.4667    4.7045    1.1432 O.2       1 <0>        -0.4756
     30 C22        -1.7756    5.5619   -0.9168 C.ar      1 <0>        -0.1635
     31 C23        -1.0472    5.3458   -2.0909 C.ar      1 <0>        -0.0297
     32 C24        -1.0753    6.2755   -3.1026 C.ar      1 <0>        -0.1530
     33 C25        -1.8203    7.4485   -2.9649 C.ar      1 <0>         0.1174
     34 C26        -2.5326    7.6645   -1.7882 C.ar      1 <0>        -0.1927
     35 C27        -2.5194    6.7382   -0.7752 C.ar      1 <0>        -0.0245
     36 C28        -3.2119    9.0139   -1.9225 C.3       1 <0>        -0.1008
     37 C29        -2.4567    9.6338   -3.1219 C.3       1 <0>         0.0807
     38 H2         -3.0650   10.2683   -3.7833 H         1 <0>         0.1156
     39 O5         -1.9909    8.4774   -3.8375 O.3       1 <0>        -0.3010
     40 C30        -1.2792   10.4837   -2.6401 C.3       1 <0>        -0.1777
     41 H3          5.3728   11.1693    5.7193 H         1 <0>         0.0558
     42 H4          4.2507   11.4770    4.3507 H         1 <0>         0.0561
     43 H5          5.8521   10.7221    4.0469 H         1 <0>         0.0558
     44 H6          5.1539    8.7173    5.3475 H         1 <0>         0.0643
     45 H7          3.5525    9.4721    5.6514 H         1 <0>         0.0648
     46 H8          3.1303    9.5634    3.1995 H         1 <0>         0.0737
     47 H9          4.7317    8.8086    2.8955 H         1 <0>         0.0732
     48 H10         4.0337    6.8039    4.1961 H         1 <0>         0.0592
     49 H11         2.4322    7.5586    4.4999 H         1 <0>         0.0600
     50 H12         2.4813    5.4690    4.6409 H         1 <0>         0.1203
     51 H13         1.4297    3.2437    4.6309 H         1 <0>         0.1197
     52 H14         0.5722    2.2951    2.5276 H         1 <0>         0.1191
     53 H15         1.8321    5.7867    0.4287 H         1 <0>         0.1264
     54 H16         3.0762    2.1761    0.4725 H         1 <0>         0.0797
     55 H17         2.4710    0.4906    0.3328 H         1 <0>         0.0818
     56 H18         2.2527    0.7732   -2.1310 H         1 <0>         0.0777
     57 H19         2.8579    2.4587   -1.9914 H         1 <0>         0.0762
     58 H20         4.9923    1.6126   -1.0286 H         1 <0>         0.0969
     59 H21         4.3871   -0.0730   -1.1682 H         1 <0>         0.0950
     60 H22         4.2429   -1.1349   -3.6294 H         1 <0>         0.1722
     61 H23         5.2968   -0.3930   -5.9164 H         1 <0>         0.1668
     62 H24         5.6564    2.8565   -3.2758 H         1 <0>         0.2022
     63 H25        -0.4645    4.4436   -2.2047 H         1 <0>         0.1414
     64 H26        -0.5138    6.0998   -4.0084 H         1 <0>         0.1279
     65 H27        -3.0818    6.9174    0.1292 H         1 <0>         0.1301
     66 H28        -4.2845    8.8667   -2.1172 H         1 <0>         0.0895
     67 H29        -3.0833    9.5836   -0.9903 H         1 <0>         0.0911
     68 H30        -0.7579   10.9136   -3.5081 H         1 <0>         0.0663
     69 H31        -0.5818    9.8536   -2.0687 H         1 <0>         0.0639
     70 H32        -1.6514   11.2949   -1.9972 H         1 <0>         0.0739
@<TRIPOS>BOND
     1    1    2 1
     2    1   41 1
     3    1   42 1
     4    1   43 1
     5    2    3 1
     6    2   44 1
     7    2   45 1
     8    3    4 1
     9    3   46 1
    10    3   47 1
    11    4    5 1
    12    4   48 1
    13    4   49 1
    14    5    6 1
    15    6   11 ar
    16    6    7 ar
    17    7    8 ar
    18    7   50 1
    19    8    9 ar
    20    8   51 1
    21    9   10 ar
    22    9   52 1
    23   10   11 ar
    24   10   12 1
    25   11   53 1
    26   12   13 1
    27   12   18 1
    28   12   14 1
    29   14   15 2
    30   14   28 1
    31   15   16 1
    32   15   27 1
    33   16   17 2
    34   16   18 am
    35   18   19 1
    36   19   20 1
    37   19   54 1
    38   19   55 1
    39   20   21 1
    40   20   56 1
    41   20   57 1
    42   21   22 1
    43   21   58 1
    44   21   59 1
    45   22   26 1
    46   22   23 1
    47   23   24 2
    48   23   60 1
    49   24   25 1
    50   24   61 1
    51   25   26 2
    52   26   62 1
    53   28   29 2
    54   28   30 1
    55   30   35 ar
    56   30   31 ar
    57   31   32 ar
    58   31   63 1
    59   32   33 ar
    60   32   64 1
    61   33   39 1
    62   33   34 ar
    63   34   35 ar
    64   34   36 1
    65   35   65 1
    66   36   37 1
    67   36   66 1
    68   36   67 1
    69   37   38 1
    70   37   39 1
    71   37   40 1
    72   40   68 1
    73   40   69 1
    74   40   70 1
@<TRIPOS>MOLECULE
ZINC35484284
   75    78     0     0     0
SMALL
USER_CHARGES

@<TRIPOS>ATOM
      1 C1         -0.5808    1.3527    0.7514 C.3       1 <0>        -0.1505
      2 C2         -0.4730   -0.1653    0.5934 C.3       1 <0>        -0.1225
      3 C3          0.3112   -0.4913   -0.6793 C.3       1 <0>        -0.1167
      4 C4          0.4189   -2.0093   -0.8373 C.3       1 <0>         0.0586
      5 O1          1.1513   -2.3137   -2.0260 O.3       1 <0>        -0.3088
      6 C5          1.3387   -3.6291   -2.3159 C.ar      1 <0>         0.0901
      7 C6          0.8239   -4.6050   -1.4777 C.ar      1 <0>        -0.1747
      8 C7          1.0149   -5.9417   -1.7741 C.ar      1 <0>        -0.0869
      9 C8          1.7195   -6.3081   -2.9058 C.ar      1 <0>        -0.0594
     10 C9          2.2361   -5.3395   -3.7460 C.ar      1 <0>        -0.1484
     11 C10         2.0430   -3.9979   -3.4580 C.ar      1 <0>         0.0948
     12 O2          2.5454   -3.0438   -4.2866 O.3       1 <0>        -0.3101
     13 C11         3.1645   -3.4934   -5.4936 C.3       1 <0>         0.0528
     14 C12         3.7664   -2.2975   -6.2341 C.3       1 <0>        -0.1482
     15 C13         1.9252   -7.7668   -3.2239 C.3       1 <0>         0.2658
     16 H1          2.6788   -7.8773   -4.0035 H         1 <0>         0.0690
     17 C14         0.6226   -8.3903   -3.6682 C.2       1 <0>        -0.4813
     18 C15        -0.1794   -8.0036   -4.8332 C.2       1 <0>         0.5085
     19 C16        -1.5286   -8.5713   -5.0215 C.2       1 <0>         0.0092
     20 C17        -2.3290   -8.4076   -6.1310 C.2       1 <0>        -0.0268
     21 N1         -3.4813   -9.0936   -5.8930 N.pl3     1 <0>        -0.3656
     22 C18        -4.6125   -9.2751   -6.6388 C.2       1 <0>         0.0357
     23 C19        -5.6359  -10.0150   -6.1661 C.2       1 <0>        -0.1388
     24 C20        -5.5532  -10.6116   -4.8959 C.2       1 <0>        -0.1483
     25 C21        -4.4353  -10.4410   -4.1425 C.2       1 <0>        -0.0107
     26 C22        -3.3707   -9.6639   -4.6492 C.2       1 <0>         0.1735
     27 N2         -2.1913   -9.3449   -4.1424 N.2       1 <0>        -0.3325
     28 C23        -4.3325  -11.0752   -2.7793 C.3       1 <0>        -0.1001
     29 C24        -1.9936   -7.6194   -7.3709 C.3       1 <0>        -0.0691
     30 O3          0.2675   -7.2145   -5.6450 O.2       1 <0>        -0.5322
     31 C25         0.3392   -9.3747   -2.7839 C.2       1 <0>         0.2762
     32 O4         -0.7481  -10.1790   -2.8280 O.3       1 <0>        -0.5560
     33 C26         1.4060   -9.4324   -1.7631 C.2       1 <0>         0.5054
     34 O5          1.4390  -10.2127   -0.8324 O.2       1 <0>        -0.5369
     35 N3          2.3357   -8.4935   -2.0167 N.am      1 <0>        -0.6094
     36 C27         3.5437   -8.2410   -1.2273 C.3       1 <0>         0.1427
     37 C28         3.2352   -7.2119   -0.1380 C.3       1 <0>        -0.1450
     38 C29         4.4969   -6.9482    0.6864 C.3       1 <0>         0.0671
     39 O6          4.2088   -5.9870    1.7039 O.3       1 <0>        -0.3893
     40 C30         5.3264   -5.6679    2.5352 C.3       1 <0>         0.0324
     41 H2          0.4185    1.7826    0.8202 H         1 <0>         0.0546
     42 H3         -1.0981    1.7719   -0.1115 H         1 <0>         0.0548
     43 H4         -1.1394    1.5848    1.6581 H         1 <0>         0.0548
     44 H5          0.0444   -0.5846    1.4563 H         1 <0>         0.0645
     45 H6         -1.4722   -0.5953    0.5246 H         1 <0>         0.0645
     46 H7         -0.2062   -0.0720   -1.5422 H         1 <0>         0.0716
     47 H8          1.3104   -0.0613   -0.6105 H         1 <0>         0.0714
     48 H9          0.9363   -2.4285    0.0257 H         1 <0>         0.0588
     49 H10        -0.5803   -2.4393   -0.9060 H         1 <0>         0.0579
     50 H11         0.2738   -4.3214   -0.5927 H         1 <0>         0.1268
     51 H12         0.6131   -6.7014   -1.1200 H         1 <0>         0.1196
     52 H13         2.7865   -5.6284   -4.6292 H         1 <0>         0.1324
     53 H14         3.9531   -4.2065   -5.2536 H         1 <0>         0.0580
     54 H15         2.4192   -3.9751   -6.1266 H         1 <0>         0.0646
     55 H16         4.4460   -1.7635   -5.5700 H         1 <0>         0.0627
     56 H17         4.3143   -2.6496   -7.1081 H         1 <0>         0.0739
     57 H18         2.9676   -1.6273   -6.5518 H         1 <0>         0.0627
     58 H19        -4.6874   -8.8212   -7.6159 H         1 <0>         0.1508
     59 H20        -6.5237  -10.1496   -6.7662 H         1 <0>         0.1405
     60 H21        -6.3751  -11.2030   -4.5202 H         1 <0>         0.1322
     61 H22        -5.2067  -11.7021   -2.6034 H         1 <0>         0.0604
     62 H23        -3.4313  -11.6863   -2.7298 H         1 <0>         0.0848
     63 H24        -4.2853  -10.2959   -2.0187 H         1 <0>         0.0755
     64 H25        -1.4996   -8.2701   -8.0925 H         1 <0>         0.0666
     65 H26        -2.9098   -7.2221   -7.8077 H         1 <0>         0.0522
     66 H27        -1.3289   -6.7961   -7.1094 H         1 <0>         0.1024
     67 H28         3.8767   -9.1704   -0.7653 H         1 <0>         0.0776
     68 H29         4.3293   -7.8569   -1.8781 H         1 <0>         0.0744
     69 H30         2.9022   -6.2825   -0.5999 H         1 <0>         0.0855
     70 H31         2.4497   -7.5960    0.5128 H         1 <0>         0.0736
     71 H32         4.8299   -7.8776    1.1484 H         1 <0>         0.0481
     72 H33         5.2824   -6.5641    0.0357 H         1 <0>         0.0478
     73 H34         6.1292   -5.2572    1.9228 H         1 <0>         0.0388
     74 H35         5.0259   -4.9323    3.2813 H         1 <0>         0.0827
     75 H36         5.6766   -6.5707    3.0355 H         1 <0>         0.0389
@<TRIPOS>BOND
     1    1    2 1
     2    1   41 1
     3    1   42 1
     4    1   43 1
     5    2    3 1
     6    2   44 1
     7    2   45 1
     8    3    4 1
     9    3   46 1
    10    3   47 1
    11    4    5 1
    12    4   48 1
    13    4   49 1
    14    5    6 1
    15    6   11 ar
    16    6    7 ar
    17    7    8 ar
    18    7   50 1
    19    8    9 ar
    20    8   51 1
    21    9   10 ar
    22    9   15 1
    23   10   11 ar
    24   10   52 1
    25   11   12 1
    26   12   13 1
    27   13   14 1
    28   13   53 1
    29   13   54 1
    30   14   55 1
    31   14   56 1
    32   14   57 1
    33   15   17 1
    34   15   35 1
    35   15   16 1
    36   17   31 2
    37   17   18 1
    38   18   30 2
    39   18   19 1
    40   19   27 1
    41   19   20 2
    42   20   21 1
    43   20   29 1
    44   21   26 1
    45   21   22 1
    46   22   23 2
    47   22   58 1
    48   23   24 1
    49   23   59 1
    50   24   25 2
    51   24   60 1
    52   25   26 1
    53   25   28 1
    54   26   27 2
    55   28   61 1
    56   28   62 1
    57   28   63 1
    58   29   64 1
    59   29   65 1
    60   29   66 1
    61   31   33 1
    62   31   32 1
    63   33   35 am
    64   33   34 2
    65   35   36 1
    66   36   37 1
    67   36   67 1
    68   36   68 1
    69   37   38 1
    70   37   69 1
    71   37   70 1
    72   38   39 1
    73   38   71 1
    74   38   72 1
    75   39   40 1
    76   40   73 1
    77   40   74 1
    78   40   75 1
@<TRIPOS>MOLECULE
ZINC39997715
   59    61     0     0     0
SMALL
USER_CHARGES

@<TRIPOS>ATOM
      1 C1          0.0481    1.5188   -0.4570 C.3       1 <0>        -0.1463
      2 C2          0.0638   -0.0111   -0.4471 C.3       1 <0>        -0.0941
      3 C3          0.9216   -0.5048    0.7197 C.3       1 <0>        -0.1545
      4 C4         -1.3648   -0.5347   -0.2871 C.3       1 <0>        -0.1128
      5 C5         -1.3647   -2.0604   -0.4020 C.3       1 <0>         0.0539
      6 O1         -2.6990   -2.5495   -0.2526 O.3       1 <0>        -0.3025
      7 C6         -2.8751   -3.8939   -0.3293 C.ar      1 <0>         0.1147
      8 C7         -1.7813   -4.7244   -0.5387 C.ar      1 <0>        -0.1726
      9 C8         -1.9525   -6.0881   -0.6180 C.ar      1 <0>        -0.0915
     10 C9         -3.2339   -6.6415   -0.4866 C.ar      1 <0>        -0.0765
     11 C10        -4.3365   -5.8018   -0.2749 C.ar      1 <0>        -0.1437
     12 C11        -4.1529   -4.4364   -0.1918 C.ar      1 <0>         0.0943
     13 O2         -5.2192   -3.6190    0.0190 O.3       1 <0>        -0.3072
     14 C12        -6.4984   -4.2422    0.1506 C.3       1 <0>         0.0239
     15 C13        -3.4202   -8.0921   -0.5708 C.2       1 <0>         0.0139
     16 C14        -2.4095   -8.9406   -0.1745 C.2       1 <0>        -0.0336
     17 C15        -1.2363   -8.4124    0.4541 C.1       1 <0>         0.2783
     18 N1         -0.3056   -7.9933    0.9528 N.1       1 <0>        -0.4328
     19 C16        -2.5356  -10.3877   -0.3968 C.2       1 <0>         0.4685
     20 O3         -3.6443  -10.8869   -0.9908 O.3       1 <0>        -0.6262
     21 N2         -1.5715  -11.1972   -0.0186 N.2       1 <0>        -0.6023
     22 C17        -1.6880  -12.5349   -0.2241 C.2       1 <0>         0.3667
     23 N3         -2.6728  -13.2309   -0.7865 N.2       1 <0>        -0.3425
     24 N4         -2.6191  -14.4860   -0.8989 N.2       1 <0>        -0.2411
     25 C18        -1.5792  -15.1859   -0.4639 C.2       1 <0>        -0.0717
     26 S1         -0.5568  -13.8634    0.1774 S.3       1 <0>        -0.0620
     27 S2         -1.2851  -16.9225   -0.5102 S.3       1 <0>         0.0069
     28 C19        -2.7649  -17.5970   -1.3139 C.3       1 <0>        -0.0680
     29 C20        -2.6412  -19.0953   -1.4180 C.ar      1 <0>        -0.0791
     30 C21        -2.0525  -19.6640   -2.5321 C.ar      1 <0>        -0.0710
     31 C22        -1.9382  -21.0379   -2.6285 C.ar      1 <0>        -0.1535
     32 C23        -2.4136  -21.8448   -1.6087 C.ar      1 <0>         0.0985
     33 C24        -3.0030  -21.2741   -0.4933 C.ar      1 <0>        -0.1535
     34 C25        -3.1115  -19.8997   -0.3968 C.ar      1 <0>        -0.0710
     35 F1         -2.3027  -23.1880   -1.7020 F         1 <0>        -0.1415
     36 H1          1.0660    1.8918   -0.5709 H         1 <0>         0.0566
     37 H2         -0.5629    1.8705   -1.2882 H         1 <0>         0.0558
     38 H3         -0.3697    1.8839    0.4812 H         1 <0>         0.0560
     39 H4          0.4817   -0.3762   -1.3852 H         1 <0>         0.0729
     40 H5          0.5037   -0.1397    1.6579 H         1 <0>         0.0571
     41 H6          0.9328   -1.5947    0.7267 H         1 <0>         0.0571
     42 H7          1.9394   -0.1318    0.6057 H         1 <0>         0.0566
     43 H8         -1.7511   -0.2440    0.6898 H         1 <0>         0.0742
     44 H9         -1.9965   -0.1116   -1.0682 H         1 <0>         0.0740
     45 H10        -0.9784   -2.3511   -1.3790 H         1 <0>         0.0619
     46 H11        -0.7330   -2.4836    0.3790 H         1 <0>         0.0650
     47 H12        -0.7939   -4.2989   -0.6400 H         1 <0>         0.1366
     48 H13        -1.1003   -6.7311   -0.7816 H         1 <0>         0.1334
     49 H14        -5.3260   -6.2225   -0.1730 H         1 <0>         0.1446
     50 H15        -7.2592   -3.4791    0.3147 H         1 <0>         0.0991
     51 H16        -6.7287   -4.7949   -0.7602 H         1 <0>         0.0570
     52 H17        -6.4830   -4.9280    0.9977 H         1 <0>         0.0565
     53 H18        -4.3497   -8.4964   -0.9436 H         1 <0>         0.1620
     54 H19        -3.6457  -17.3452   -0.7233 H         1 <0>         0.1029
     55 H20        -2.8626  -17.1702   -2.3122 H         1 <0>         0.1030
     56 H21        -1.6822  -19.0344   -3.3276 H         1 <0>         0.1381
     57 H22        -1.4786  -21.4820   -3.4991 H         1 <0>         0.1368
     58 H23        -3.3744  -21.9025    0.3026 H         1 <0>         0.1368
     59 H24        -3.5672  -19.4541    0.4751 H         1 <0>         0.1381
@<TRIPOS>BOND
     1    1    2 1
     2    1   36 1
     3    1   37 1
     4    1   38 1
     5    2    3 1
     6    2    4 1
     7    2   39 1
     8    3   40 1
     9    3   41 1
    10    3   42 1
    11    4    5 1
    12    4   43 1
    13    4   44 1
    14    5    6 1
    15    5   45 1
    16    5   46 1
    17    6    7 1
    18    7   12 ar
    19    7    8 ar
    20    8    9 ar
    21    8   47 1
    22    9   10 ar
    23    9   48 1
    24   10   11 ar
    25   10   15 1
    26   11   12 ar
    27   11   49 1
    28   12   13 1
    29   13   14 1
    30   14   50 1
    31   14   51 1
    32   14   52 1
    33   15   16 2
    34   15   53 1
    35   16   17 1
    36   16   19 1
    37   17   18 3
    38   19   20 1
    39   19   21 2
    40   21   22 1
    41   22   26 1
    42   22   23 2
    43   23   24 1
    44   24   25 2
    45   25   26 1
    46   25   27 1
    47   27   28 1
    48   28   29 1
    49   28   54 1
    50   28   55 1
    51   29   34 ar
    52   29   30 ar
    53   30   31 ar
    54   30   56 1
    55   31   32 ar
    56   31   57 1
    57   32   33 ar
    58   32   35 1
    59   33   34 ar
    60   33   58 1
    61   34   59 1
@<TRIPOS>MOLECULE
ZINC40083591
   73    75     0     0     0
SMALL
USER_CHARGES

@<TRIPOS>ATOM
      1 C1         -2.8145    1.8248    2.1513 C.3       1 <0>        -0.1509
      2 C2         -2.9971    0.3211    2.3669 C.3       1 <0>        -0.1215
      3 C3         -2.8478   -0.4077    1.0300 C.3       1 <0>        -0.1183
      4 C4         -3.0304   -1.9114    1.2456 C.3       1 <0>         0.0607
      5 O1         -2.8910   -2.5920   -0.0031 O.3       1 <0>        -0.3169
      6 C5         -3.0257   -3.9422    0.0129 C.ar      1 <0>         0.1330
      7 C6         -3.2932   -4.5983    1.2096 C.ar      1 <0>        -0.2054
      8 C7         -3.4310   -5.9676    1.2301 C.ar      1 <0>        -0.0440
      9 C8         -3.3016   -6.6992    0.0453 C.ar      1 <0>        -0.1388
     10 C9         -3.0326   -6.0357   -1.1555 C.ar      1 <0>        -0.0207
     11 C10        -2.9015   -4.6652   -1.1681 C.ar      1 <0>        -0.1571
     12 C11        -2.8917   -6.8190   -2.4352 C.3       1 <0>        -0.1238
     13 C12        -3.4481   -8.1679    0.0627 C.2       1 <0>         0.4677
     14 O2         -4.5526   -8.6680    0.1672 O.2       1 <0>        -0.4890
     15 C13        -2.2627   -9.0243   -0.0460 C.2       1 <0>        -0.4770
     16 C14        -2.2485  -10.3737   -0.1476 C.2       1 <0>         0.2781
     17 C15        -0.8486  -10.8393   -0.2351 C.2       1 <0>         0.5072
     18 O3         -0.5049  -12.0004   -0.3349 O.2       1 <0>        -0.5385
     19 N1         -0.0110   -9.7875   -0.1879 N.am      1 <0>        -0.6002
     20 C16        -0.8221   -8.5698   -0.0728 C.3       1 <0>         0.2571
     21 H1         -0.6501   -7.9197   -0.9306 H         1 <0>         0.0813
     22 C17        -0.4837   -7.8444    1.2041 C.ar      1 <0>        -0.0264
     23 C18        -0.3415   -8.5520    2.3837 C.ar      1 <0>        -0.1339
     24 C19        -0.0311   -7.8895    3.5567 C.ar      1 <0>        -0.0871
     25 C20         0.1372   -6.5182    3.5532 C.ar      1 <0>        -0.2198
     26 C21        -0.0050   -5.8061    2.3713 C.ar      1 <0>         0.1268
     27 C22        -0.3105   -6.4742    1.1941 C.ar      1 <0>        -0.1253
     28 O4          0.1602   -4.4572    2.3652 O.3       1 <0>        -0.3127
     29 C23         0.4793   -3.8371    3.6125 C.3       1 <0>         0.0604
     30 C24         0.6258   -2.3278    3.4089 C.3       1 <0>        -0.1225
     31 C25         0.9675   -1.6638    4.7443 C.3       1 <0>        -0.1489
     32 C26         1.4516   -9.8468   -0.2473 C.3       1 <0>         0.1389
     33 C27         1.9067   -9.7592   -1.7054 C.3       1 <0>         0.0449
     34 O5          1.5583   -8.4793   -2.2371 O.3       1 <0>        -0.3675
     35 C28         1.9410   -8.2929   -3.6012 C.3       1 <0>         0.0621
     36 C29         1.5206   -6.8960   -4.0625 C.3       1 <0>         0.0786
     37 O6          2.2505   -5.9118   -3.3271 O.3       1 <0>        -0.5641
     38 O7         -3.3422  -11.1700   -0.1660 O.3       1 <0>        -0.6124
     39 H2         -2.9209    2.3440    3.1038 H         1 <0>         0.0549
     40 H3         -1.8222    2.0153    1.7425 H         1 <0>         0.0552
     41 H4         -3.5703    2.1863    1.4540 H         1 <0>         0.0547
     42 H5         -2.2413   -0.0404    3.0642 H         1 <0>         0.0644
     43 H6         -3.9894    0.1306    2.7758 H         1 <0>         0.0636
     44 H7         -3.6036   -0.0462    0.3327 H         1 <0>         0.0711
     45 H8         -1.8555   -0.2171    0.6212 H         1 <0>         0.0727
     46 H9         -2.2746   -2.2729    1.9429 H         1 <0>         0.0621
     47 H10        -4.0227   -2.1019    1.6545 H         1 <0>         0.0568
     48 H11        -3.3926   -4.0325    2.1242 H         1 <0>         0.1187
     49 H12        -3.6384   -6.4763    2.1599 H         1 <0>         0.1179
     50 H13        -2.6978   -4.1515   -2.0960 H         1 <0>         0.1247
     51 H14        -3.8478   -6.8356   -2.9582 H         1 <0>         0.0696
     52 H15        -2.1394   -6.3485   -3.0682 H         1 <0>         0.0637
     53 H16        -2.5859   -7.8395   -2.2047 H         1 <0>         0.0854
     54 H17        -0.4734   -9.6239    2.3886 H         1 <0>         0.1161
     55 H18         0.0795   -8.4443    4.4767 H         1 <0>         0.1164
     56 H19         0.3790   -6.0010    4.4700 H         1 <0>         0.1169
     57 H20        -0.4170   -5.9226    0.2717 H         1 <0>         0.1246
     58 H21        -0.3184   -4.0313    4.3294 H         1 <0>         0.0565
     59 H22         1.4161   -4.2451    3.9920 H         1 <0>         0.0568
     60 H23         1.4235   -2.1336    2.6920 H         1 <0>         0.0723
     61 H24        -0.3110   -1.9197    3.0295 H         1 <0>         0.0708
     62 H25         1.0718   -0.5886    4.5993 H         1 <0>         0.0621
     63 H26         0.1698   -1.8580    5.4613 H         1 <0>         0.0561
     64 H27         1.9043   -2.0719    5.1238 H         1 <0>         0.0563
     65 H28         1.8722   -9.0133    0.3153 H         1 <0>         0.0847
     66 H29         1.7950  -10.7868    0.1847 H         1 <0>         0.0928
     67 H30         2.9873   -9.8923   -1.7574 H         1 <0>         0.0545
     68 H31         1.4162  -10.5399   -2.2867 H         1 <0>         0.0530
     69 H32         3.0223   -8.3955   -3.6925 H         1 <0>         0.0508
     70 H33         1.4511   -9.0432   -4.2218 H         1 <0>         0.0602
     71 H34         1.7320   -6.7856   -5.1261 H         1 <0>         0.0556
     72 H35         0.4530   -6.7618   -3.8884 H         1 <0>         0.0574
     73 H36         2.0344   -5.0005   -3.5680 H         1 <0>         0.3764
@<TRIPOS>BOND
     1    1    2 1
     2    1   39 1
     3    1   40 1
     4    1   41 1
     5    2    3 1
     6    2   42 1
     7    2   43 1
     8    3    4 1
     9    3   44 1
    10    3   45 1
    11    4    5 1
    12    4   46 1
    13    4   47 1
    14    5    6 1
    15    6   11 ar
    16    6    7 ar
    17    7    8 ar
    18    7   48 1
    19    8    9 ar
    20    8   49 1
    21    9   10 ar
    22    9   13 1
    23   10   11 ar
    24   10   12 1
    25   11   50 1
    26   12   51 1
    27   12   52 1
    28   12   53 1
    29   13   14 2
    30   13   15 1
    31   15   20 1
    32   15   16 2
    33   16   17 1
    34   16   38 1
    35   17   18 2
    36   17   19 am
    37   19   20 1
    38   19   32 1
    39   20   21 1
    40   20   22 1
    41   22   27 ar
    42   22   23 ar
    43   23   24 ar
    44   23   54 1
    45   24   25 ar
    46   24   55 1
    47   25   26 ar
    48   25   56 1
    49   26   27 ar
    50   26   28 1
    51   27   57 1
    52   28   29 1
    53   29   30 1
    54   29   58 1
    55   29   59 1
    56   30   31 1
    57   30   60 1
    58   30   61 1
    59   31   62 1
    60   31   63 1
    61   31   64 1
    62   32   33 1
    63   32   65 1
    64   32   66 1
    65   33   34 1
    66   33   67 1
    67   33   68 1
    68   34   35 1
    69   35   36 1
    70   35   69 1
    71   35   70 1
    72   36   37 1
    73   36   71 1
    74   36   72 1
    75   37   73 1
@<TRIPOS>MOLECULE
ZINC40101232
   76    78     0     0     0
SMALL
USER_CHARGES

@<TRIPOS>ATOM
      1 C1         -0.2110    1.6418    0.0900 C.3       1 <0>        -0.1537
      2 C2         -0.1666    0.1128    0.1226 C.3       1 <0>        -0.1258
      3 C3         -1.5900   -0.4408    0.0319 C.3       1 <0>        -0.1194
      4 C4         -1.5456   -1.9698    0.0645 C.3       1 <0>        -0.1172
      5 C5         -2.9691   -2.5234   -0.0262 C.3       1 <0>        -0.1187
      6 C6         -2.9247   -4.0524    0.0064 C.3       1 <0>         0.0607
      7 O1         -4.2542   -4.5694   -0.0783 O.3       1 <0>        -0.3195
      8 C7         -4.3926   -5.9213   -0.0621 C.ar      1 <0>         0.1199
      9 C8         -3.2723   -6.7333    0.0392 C.ar      1 <0>        -0.2116
     10 C9         -3.4158   -8.1072    0.0559 C.ar      1 <0>        -0.0767
     11 C10        -4.6745   -8.6731   -0.0286 C.ar      1 <0>        -0.1074
     12 C11        -5.7925   -7.8660   -0.1301 C.ar      1 <0>        -0.0410
     13 C12        -5.6549   -6.4915   -0.1411 C.ar      1 <0>        -0.1573
     14 C13        -4.8280  -10.1722   -0.0106 C.3       1 <0>         0.2677
     15 H1         -3.8775  -10.6429    0.2405 H         1 <0>         0.0674
     16 C14        -5.3102  -10.6611   -1.3564 C.2       1 <0>        -0.5055
     17 C15        -6.5019  -11.2682   -1.1473 C.2       1 <0>         0.2660
     18 C16        -6.8343  -11.2026    0.2916 C.2       1 <0>         0.5152
     19 O2         -7.8404  -11.6597    0.7964 O.2       1 <0>        -0.5187
     20 N1         -5.8565  -10.5624    0.9608 N.am      1 <0>        -0.6115
     21 C17        -5.8246  -10.3011    2.4019 C.3       1 <0>         0.1424
     22 C18        -6.4908   -8.9544    2.6909 C.3       1 <0>         0.0349
     23 O3         -7.8767   -9.0258    2.3503 O.3       1 <0>        -0.3556
     24 C19        -8.5957   -7.8130    2.5833 C.3       1 <0>         0.0625
     25 C20       -10.0607   -8.0041    2.1854 C.3       1 <0>         0.0788
     26 O4        -10.6651   -8.9729    3.0444 O.3       1 <0>        -0.5635
     27 O5         -7.2671  -11.8434   -2.1032 O.3       1 <0>        -0.6557
     28 C21        -4.6208  -10.5074   -2.6408 C.2       1 <0>         0.5045
     29 O6         -5.1073   -9.8126   -3.5130 O.2       1 <0>        -0.4701
     30 C22        -3.3340  -11.1967   -2.8764 C.ar      1 <0>        -0.0967
     31 C23        -2.8330  -12.0899   -1.9264 C.ar      1 <0>        -0.0992
     32 C24        -1.6325  -12.7314   -2.1498 C.ar      1 <0>        -0.0993
     33 C25        -0.9220  -12.4934   -3.3124 C.ar      1 <0>        -0.1957
     34 C26        -1.4117  -11.6070   -4.2624 C.ar      1 <0>         0.1102
     35 C27        -2.6184  -10.9618   -4.0513 C.ar      1 <0>        -0.1062
     36 O7         -0.7088  -11.3769   -5.4026 O.3       1 <0>        -0.3174
     37 C28         0.5250  -12.0810   -5.5575 C.3       1 <0>         0.0594
     38 C29         1.1679  -11.6960   -6.8914 C.3       1 <0>        -0.1245
     39 C30         2.4889  -12.4499   -7.0573 C.3       1 <0>        -0.1489
     40 H2          0.8031    2.0362    0.1546 H         1 <0>         0.0527
     41 H3         -0.6706    1.9722   -0.8416 H         1 <0>         0.0536
     42 H4         -0.7971    2.0064    0.9336 H         1 <0>         0.0533
     43 H5          0.4195   -0.2517   -0.7210 H         1 <0>         0.0612
     44 H6          0.2930   -0.2175    1.0541 H         1 <0>         0.0608
     45 H7         -2.1761   -0.0762    0.8755 H         1 <0>         0.0627
     46 H8         -2.0496   -0.1104   -0.8997 H         1 <0>         0.0633
     47 H9         -0.9595   -2.3344   -0.7791 H         1 <0>         0.0651
     48 H10        -1.0860   -2.3001    0.9960 H         1 <0>         0.0643
     49 H11        -3.5552   -2.1588    0.8174 H         1 <0>         0.0719
     50 H12        -3.4287   -2.1931   -0.9577 H         1 <0>         0.0729
     51 H13        -2.3386   -4.4170   -0.8372 H         1 <0>         0.0597
     52 H14        -2.4651   -4.3827    0.9380 H         1 <0>         0.0584
     53 H15        -2.2889   -6.2917    0.1045 H         1 <0>         0.1208
     54 H16        -2.5440   -8.7397    0.1348 H         1 <0>         0.1214
     55 H17        -6.7746   -8.3105   -0.1964 H         1 <0>         0.1269
     56 H18        -6.5288   -5.8614   -0.2159 H         1 <0>         0.1229
     57 H19        -6.3609  -11.0918    2.9266 H         1 <0>         0.0855
     58 H20        -4.7899  -10.2754    2.7437 H         1 <0>         0.0871
     59 H21        -6.3886   -8.7184    3.7502 H         1 <0>         0.0477
     60 H22        -6.0103   -8.1766    2.0974 H         1 <0>         0.0595
     61 H23        -8.5373   -7.5533    3.6403 H         1 <0>         0.0484
     62 H24        -8.1590   -7.0115    1.9876 H         1 <0>         0.0586
     63 H25       -10.5893   -7.0554    2.2789 H         1 <0>         0.0544
     64 H26       -10.1146   -8.3498    1.1531 H         1 <0>         0.0569
     65 H27       -11.5965   -9.1448    2.8494 H         1 <0>         0.3757
     66 H28        -3.3850  -12.2777   -1.0173 H         1 <0>         0.1367
     67 H29        -1.2459  -13.4215   -1.4144 H         1 <0>         0.1247
     68 H30         0.0174  -12.9987   -3.4818 H         1 <0>         0.1229
     69 H31        -3.0027  -10.2757   -4.7916 H         1 <0>         0.1357
     70 H32         1.1978  -11.8192   -4.7409 H         1 <0>         0.0591
     71 H33         0.3352  -13.1543   -5.5420 H         1 <0>         0.0597
     72 H34         0.4951  -11.9578   -7.7081 H         1 <0>         0.0734
     73 H35         1.3577  -10.6228   -6.9069 H         1 <0>         0.0727
     74 H36         3.1617  -12.1881   -6.2406 H         1 <0>         0.0565
     75 H37         2.2991  -13.5232   -7.0418 H         1 <0>         0.0570
     76 H38         2.9470  -12.1757   -8.0076 H         1 <0>         0.0627
@<TRIPOS>BOND
     1    1    2 1
     2    1   40 1
     3    1   41 1
     4    1   42 1
     5    2    3 1
     6    2   43 1
     7    2   44 1
     8    3    4 1
     9    3   45 1
    10    3   46 1
    11    4    5 1
    12    4   47 1
    13    4   48 1
    14    5    6 1
    15    5   49 1
    16    5   50 1
    17    6    7 1
    18    6   51 1
    19    6   52 1
    20    7    8 1
    21    8   13 ar
    22    8    9 ar
    23    9   10 ar
    24    9   53 1
    25   10   11 ar
    26   10   54 1
    27   11   12 ar
    28   11   14 1
    29   12   13 ar
    30   12   55 1
    31   13   56 1
    32   14   15 1
    33   14   20 1
    34   14   16 1
    35   16   17 2
    36   16   28 1
    37   17   18 1
    38   17   27 1
    39   18   19 2
    40   18   20 am
    41   20   21 1
    42   21   22 1
    43   21   57 1
    44   21   58 1
    45   22   23 1
    46   22   59 1
    47   22   60 1
    48   23   24 1
    49   24   25 1
    50   24   61 1
    51   24   62 1
    52   25   26 1
    53   25   63 1
    54   25   64 1
    55   26   65 1
    56   28   29 2
    57   28   30 1
    58   30   35 ar
    59   30   31 ar
    60   31   32 ar
    61   31   66 1
    62   32   33 ar
    63   32   67 1
    64   33   34 ar
    65   33   68 1
    66   34   35 ar
    67   34   36 1
    68   35   69 1
    69   36   37 1
    70   37   38 1
    71   37   70 1
    72   37   71 1
    73   38   39 1
    74   38   72 1
    75   38   73 1
    76   39   74 1
    77   39   75 1
    78   39   76 1
@<TRIPOS>MOLECULE
ZINC09549852
   59    64     0     0     0
SMALL
USER_CHARGES
2-[1-phenyl-3-(4-pyridyl)pyrazol-4-yl]-3-(tetrahydrofuran-2-ylmethyl)-1,2-dihydroquinazolin-4-one
@<TRIPOS>ATOM
      1 C1          5.3159    2.4050   -7.9415 C.ar      1 <0>        -0.1244
      2 C2          4.7311    1.1520   -7.9409 C.ar      1 <0>        -0.0942
      3 C3          4.5111    0.4915   -6.7480 C.ar      1 <0>        -0.1167
      4 C4          4.8783    1.0869   -5.5485 C.ar      1 <0>         0.1542
      5 C5          5.4605    2.3475   -5.5520 C.ar      1 <0>        -0.1380
      6 C6          5.6827    3.0006   -6.7486 C.ar      1 <0>        -0.0908
      7 N1          4.6565    0.4194   -4.3367 N.pl3     1 <0>        -0.3122
      8 C7          4.9615    0.8894   -3.0988 C.2       1 <0>         0.0854
      9 C8          4.5972   -0.0488   -2.1980 C.2       1 <0>        -0.2469
     10 C9          4.0387   -1.1330   -2.9037 C.2       1 <0>         0.1387
     11 N2          4.0765   -0.8471   -4.1886 N.2       1 <0>        -0.2621
     12 C10         3.5011   -2.3786   -2.3040 C.ar      1 <0>         0.0473
     13 C11         4.0893   -2.9399   -1.1668 C.ar      1 <0>        -0.1587
     14 C12         3.5549   -4.0970   -0.6389 C.ar      1 <0>         0.0993
     15 N3          2.5104   -4.6773   -1.1984 N.ar      1 <0>        -0.4767
     16 C13         1.9288   -4.1829   -2.2745 C.ar      1 <0>         0.1063
     17 C14         2.3962   -3.0265   -2.8640 C.ar      1 <0>        -0.1431
     18 C15         4.7543    0.0494   -0.7025 C.3       1 <0>         0.4645
     19 H1          5.6841   -0.4354   -0.4047 H         1 <0>         0.1090
     20 N4          3.6266   -0.6270   -0.0498 N.pl3     1 <0>        -0.7452
     21 C16         2.3930    0.0136   -0.0240 C.ar      1 <0>         0.2383
     22 C17         1.2013   -0.6904   -0.0147 C.ar      1 <0>        -0.1788
     23 C18         0.0021   -0.0041    0.0020 C.ar      1 <0>        -0.0546
     24 C19        -0.0167    1.3819    0.0096 C.ar      1 <0>        -0.1712
     25 C20         1.1621    2.0986    0.0022 C.ar      1 <0>        -0.0245
     26 C21         2.3778    1.4198   -0.0134 C.ar      1 <0>        -0.1940
     27 C22         3.6664    2.1356   -0.0174 C.2       1 <0>         0.5813
     28 O1          3.7112    3.3228    0.2416 O.2       1 <0>        -0.5154
     29 N5          4.7957    1.4583   -0.3113 N.am      1 <0>        -0.6188
     30 C23         6.0870    2.1463   -0.2368 C.3       1 <0>         0.1135
     31 C24         6.6636    1.9974    1.1726 C.3       1 <0>         0.0604
     32 H2          6.7876    0.9414    1.4125 H         1 <0>         0.0662
     33 C25         8.0227    2.7181    1.2615 C.3       1 <0>        -0.1496
     34 C26         7.8273    3.7587    2.3909 C.3       1 <0>        -0.1539
     35 C27         6.6214    3.1718    3.1680 C.3       1 <0>         0.0455
     36 O2          5.7871    2.6189    2.1274 O.3       1 <0>        -0.3536
     37 H3          5.4869    2.9195   -8.8756 H         1 <0>         0.1314
     38 H4          4.4457    0.6894   -8.8742 H         1 <0>         0.1343
     39 H5          4.0537   -0.4868   -6.7482 H         1 <0>         0.1378
     40 H6          5.7428    2.8151   -4.6204 H         1 <0>         0.1290
     41 H7          6.1392    3.9793   -6.7522 H         1 <0>         0.1353
     42 H8          5.4164    1.8430   -2.8749 H         1 <0>         0.1788
     43 H9          4.9471   -2.4726   -0.7062 H         1 <0>         0.1345
     44 H10         4.0003   -4.5363    0.2415 H         1 <0>         0.1610
     45 H11         1.0757   -4.6905   -2.6999 H         1 <0>         0.1603
     46 H12         1.9153   -2.6274   -3.7448 H         1 <0>         0.1376
     47 H13         3.7397   -1.5013    0.3547 H         1 <0>         0.4129
     48 H14         1.2087   -1.7703   -0.0201 H         1 <0>         0.1229
     49 H15        -0.9285   -0.5522    0.0088 H         1 <0>         0.1263
     50 H16        -0.9616    1.9049    0.0170 H         1 <0>         0.1265
     51 H17         1.1421    3.1784    0.0081 H         1 <0>         0.1324
     52 H18         6.7750    1.7069   -0.9591 H         1 <0>         0.0892
     53 H19         5.9489    3.2035   -0.4631 H         1 <0>         0.0983
     54 H20         8.8118    2.0135    1.5242 H         1 <0>         0.0778
     55 H21         8.2528    3.2161    0.3196 H         1 <0>         0.0797
     56 H22         8.7108    3.8128    3.0271 H         1 <0>         0.0797
     57 H23         7.5859    4.7387    1.9795 H         1 <0>         0.0783
     58 H24         6.9498    2.3899    3.8527 H         1 <0>         0.0574
     59 H25         6.0943    3.9576    3.7090 H         1 <0>         0.0919
@<TRIPOS>BOND
     1    1    6 ar
     2    1    2 ar
     3    1   37 1
     4    2    3 ar
     5    2   38 1
     6    3    4 ar
     7    3   39 1
     8    4    5 ar
     9    4    7 1
    10    5    6 ar
    11    5   40 1
    12    6   41 1
    13    7   11 1
    14    7    8 1
    15    8    9 2
    16    8   42 1
    17    9   10 1
    18    9   18 1
    19   10   11 2
    20   10   12 1
    21   12   17 ar
    22   12   13 ar
    23   13   14 ar
    24   13   43 1
    25   14   15 ar
    26   14   44 1
    27   15   16 ar
    28   16   17 ar
    29   16   45 1
    30   17   46 1
    31   18   19 1
    32   18   29 1
    33   18   20 1
    34   20   21 1
    35   20   47 1
    36   21   26 ar
    37   21   22 ar
    38   22   23 ar
    39   22   48 1
    40   23   24 ar
    41   23   49 1
    42   24   25 ar
    43   24   50 1
    44   25   26 ar
    45   25   51 1
    46   26   27 1
    47   27   28 2
    48   27   29 am
    49   29   30 1
    50   30   31 1
    51   30   52 1
    52   30   53 1
    53   31   32 1
    54   31   36 1
    55   31   33 1
    56   33   34 1
    57   33   54 1
    58   33   55 1
    59   34   35 1
    60   34   56 1
    61   34   57 1
    62   35   36 1
    63   35   58 1
    64   35   59 1
@<TRIPOS>MOLECULE
ZINC13667277
   40    42     0     0     0
SMALL
USER_CHARGES
N-[5-(5-bromo-2-thienyl)-1,3,4-oxadiazol-2-yl]-3-isopropylsulfonyl-benzamide
@<TRIPOS>ATOM
      1 C1         -0.0187    1.5258    0.0104 C.3       1 <0>        -0.1472
      2 C2          0.0021   -0.0041    0.0020 C.3       1 <0>        -0.5667
      3 C3          0.7421   -0.5109    1.2415 C.3       1 <0>        -0.1463
      4 S1          0.8511   -0.5891   -1.4904 S.o2      1 <0>         2.4911
      5 O1          0.0816   -0.2798   -2.6443 O.2       1 <0>        -0.9276
      6 O2          2.2316   -0.2574   -1.4300 O.2       1 <0>        -0.9274
      7 C4          0.8058   -2.3469   -1.3776 C.ar      1 <0>        -0.6644
      8 C5          1.8351   -3.0251   -0.7486 C.ar      1 <0>         0.0109
      9 C6          1.8049   -4.4048   -0.6514 C.ar      1 <0>        -0.1390
     10 C7          0.7521   -5.1146   -1.1910 C.ar      1 <0>        -0.0323
     11 C8         -0.2868   -4.4371   -1.8315 C.ar      1 <0>        -0.1510
     12 C9         -0.2527   -3.0442   -1.9214 C.ar      1 <0>         0.0436
     13 C10        -1.4176   -5.1909   -2.4122 C.2       1 <0>         0.5653
     14 O3         -2.3207   -4.5983   -2.9698 O.2       1 <0>        -0.4463
     15 N1         -1.4475   -6.5355   -2.3237 N.am      1 <0>        -0.6118
     16 C11        -2.5077   -7.2422   -2.8682 C.2       1 <0>         0.3960
     17 N2         -3.5431   -6.7306   -3.4877 N.2       1 <0>        -0.2535
     18 N3         -4.3292   -7.6769   -3.8640 N.2       1 <0>        -0.2327
     19 C12        -3.8288   -8.8331   -3.4905 C.2       1 <0>         0.2407
     20 O4         -2.6648   -8.5801   -2.8523 O.3       1 <0>        -0.2286
     21 C13        -4.4246  -10.1566   -3.7242 C.2       1 <0>        -0.1015
     22 C14        -5.6054  -10.4796   -4.3665 C.2       1 <0>        -0.0815
     23 C15        -5.9570  -11.8066   -4.4618 C.2       1 <0>        -0.1147
     24 C16        -5.1392  -12.7508   -3.9259 C.2       1 <0>        -0.1636
     25 S2         -3.8079  -11.7663   -3.2592 S.3       1 <0>         0.1746
     26 Br1        -5.3533  -14.6295   -3.9005 Br        1 <0>         0.0562
     27 H1          1.0039    1.9031    0.0027 H         1 <0>         0.0759
     28 H2         -0.5459    1.8868   -0.8726 H         1 <0>         0.0761
     29 H3         -0.5289    1.8773    0.9072 H         1 <0>         0.0879
     30 H4         -1.0205   -0.3814    0.0098 H         1 <0>         0.1417
     31 H5          0.2319   -0.1594    2.1383 H         1 <0>         0.0834
     32 H6          0.7568   -1.6008    1.2356 H         1 <0>         0.0687
     33 H7          1.7647   -0.1336    1.2338 H         1 <0>         0.0798
     34 H8          2.6638   -2.4745   -0.3284 H         1 <0>         0.1532
     35 H9          2.6094   -4.9277   -0.1556 H         1 <0>         0.1478
     36 H10         0.7319   -6.1920   -1.1183 H         1 <0>         0.1368
     37 H11        -1.0535   -2.5140   -2.4153 H         1 <0>         0.1608
     38 H12        -0.7268   -7.0084   -1.8788 H         1 <0>         0.4274
     39 H13        -6.2366   -9.7090   -4.7838 H         1 <0>         0.1613
     40 H14        -6.8728  -12.0946   -4.9566 H         1 <0>         0.1572
@<TRIPOS>BOND
     1    1    2 1
     2    1   27 1
     3    1   28 1
     4    1   29 1
     5    2    3 1
     6    2    4 1
     7    2   30 1
     8    3   31 1
     9    3   32 1
    10    3   33 1
    11    4    5 2
    12    4    6 2
    13    4    7 1
    14    7   12 ar
    15    7    8 ar
    16    8    9 ar
    17    8   34 1
    18    9   10 ar
    19    9   35 1
    20   10   11 ar
    21   10   36 1
    22   11   12 ar
    23   11   13 1
    24   12   37 1
    25   13   14 2
    26   13   15 am
    27   15   16 1
    28   15   38 1
    29   16   20 1
    30   16   17 2
    31   17   18 1
    32   18   19 2
    33   19   20 1
    34   19   21 1
    35   21   25 1
    36   21   22 2
    37   22   23 1
    38   22   39 1
    39   23   24 2
    40   23   40 1
    41   24   25 1
    42   24   26 1
@<TRIPOS>MOLECULE
ZINC20583656
   46    48     0     0     0
SMALL
USER_CHARGES
N-(3-chloro-4-fluoro-phenyl)-2-[6-(dimethylsulfamoyl)-3-oxo-1,4-benzothiazin-4-yl]acetamide
@<TRIPOS>ATOM
      1 C1         -4.0361    3.2640   -2.2485 C.3       1 <0>         0.0791
      2 N1         -3.2220    4.2601   -1.5476 N.pl3     1 <0>        -0.9995
      3 C2         -2.7917    5.4753   -2.2434 C.3       1 <0>         0.0801
      4 S1         -2.7881    4.0123    0.0312 S.o2      1 <0>         2.6889
      5 O1         -3.7502    3.1235    0.5822 O.2       1 <0>        -0.9451
      6 O2         -2.5287    5.2941    0.5871 O.2       1 <0>        -0.9497
      7 C3         -1.2525    3.1482    0.0200 C.ar      1 <0>        -0.6459
      8 C4         -1.2429    1.7653    0.0076 C.ar      1 <0>        -0.0245
      9 C5         -0.0394    1.0840    0.0028 C.ar      1 <0>        -0.0750
     10 C6          1.1522    1.7893   -0.0006 C.ar      1 <0>        -0.0796
     11 C7          1.1504    3.1849    0.0095 C.ar      1 <0>         0.1472
     12 C8         -0.0671    3.8567    0.0181 C.ar      1 <0>        -0.0388
     13 N2          2.3359    3.9150    0.0134 N.am      1 <0>        -0.5271
     14 C9          3.5283    3.4823   -0.3874 C.2       1 <0>         0.5296
     15 O3          4.4658    4.2499   -0.3291 O.2       1 <0>        -0.5011
     16 C10         3.7783    2.0935   -0.9086 C.3       1 <0>        -0.1327
     17 S2          2.6949    0.9322   -0.0231 S.3       1 <0>        -0.0571
     18 C11         2.2630    5.2927    0.5061 C.3       1 <0>         0.0709
     19 C12         2.0834    6.2334   -0.6575 C.2       1 <0>         0.5025
     20 O4          2.0223    5.7960   -1.7871 O.2       1 <0>        -0.5048
     21 N3          1.9906    7.5607   -0.4429 N.am      1 <0>        -0.6806
     22 C13         1.7123    8.4246   -1.5091 C.ar      1 <0>         0.1567
     23 C14         2.2761    9.6934   -1.5413 C.ar      1 <0>        -0.1092
     24 C15         2.0048   10.5425   -2.5963 C.ar      1 <0>        -0.1188
     25 C16         1.1622   10.1341   -3.6162 C.ar      1 <0>         0.0949
     26 C17         0.5942    8.8706   -3.5839 C.ar      1 <0>        -0.0536
     27 C18         0.8680    8.0159   -2.5324 C.ar      1 <0>        -0.0902
     28 Cl1        -0.4610    8.3606   -4.8645 Cl        1 <0>        -0.0412
     29 F1          0.8938   10.9683   -4.6444 F         1 <0>        -0.1246
     30 H1         -4.2589    2.4284   -1.5686 H         1 <0>         0.0886
     31 H2         -3.4838    2.8884   -3.1225 H         1 <0>         0.0657
     32 H3         -4.9769    3.7273   -2.5806 H         1 <0>         0.0723
     33 H4         -2.1944    6.0970   -1.5602 H         1 <0>         0.0834
     34 H5         -3.6753    6.0402   -2.5753 H         1 <0>         0.0735
     35 H6         -2.1823    5.2012   -3.1172 H         1 <0>         0.0659
     36 H7         -2.1740    1.2181    0.0061 H         1 <0>         0.1536
     37 H8         -0.0290    0.0041   -0.0027 H         1 <0>         0.1520
     38 H9         -0.0857    4.9365    0.0235 H         1 <0>         0.1412
     39 H10         3.5585    2.0611   -1.9859 H         1 <0>         0.1340
     40 H11         4.8313    1.8230   -0.7410 H         1 <0>         0.1587
     41 H12         1.4095    5.3918    1.1929 H         1 <0>         0.1303
     42 H13         3.1929    5.5414    1.0386 H         1 <0>         0.1373
     43 H14         2.1335    7.9654    0.5699 H         1 <0>         0.4446
     44 H15         2.9296   10.0145   -0.7437 H         1 <0>         0.1457
     45 H16         2.4466   11.5276   -2.6233 H         1 <0>         0.1519
     46 H17         0.4251    7.0313   -2.5069 H         1 <0>         0.1501
@<TRIPOS>BOND
     1    1    2 1
     2    1   30 1
     3    1   31 1
     4    1   32 1
     5    2    3 1
     6    2    4 1
     7    3   33 1
     8    3   34 1
     9    3   35 1
    10    4    5 2
    11    4    6 2
    12    4    7 1
    13    7   12 ar
    14    7    8 ar
    15    8    9 ar
    16    8   36 1
    17    9   10 ar
    18    9   37 1
    19   10   17 1
    20   10   11 ar
    21   11   12 ar
    22   11   13 1
    23   12   38 1
    24   13   14 am
    25   13   18 1
    26   14   15 2
    27   14   16 1
    28   16   17 1
    29   16   39 1
    30   16   40 1
    31   18   19 1
    32   18   41 1
    33   18   42 1
    34   19   20 2
    35   19   21 am
    36   21   22 1
    37   21   43 1
    38   22   27 ar
    39   22   23 ar
    40   23   24 ar
    41   23   44 1
    42   24   25 ar
    43   24   45 1
    44   25   26 ar
    45   25   29 1
    46   26   27 ar
    47   26   28 1
    48   27   46 1
@<TRIPOS>MOLECULE
ZINC36656607
   43    46     0     0     0
SMALL
USER_CHARGES

@<TRIPOS>ATOM
      1 C1          1.6192   -2.3505    2.2128 C.3       1 <0>        -0.1262
      2 C2          0.7929   -1.8491    1.0566 C.ar      1 <0>        -0.0343
      3 C3          0.7919   -2.5378   -0.1408 C.ar      1 <0>        -0.1179
      4 C4          0.0303   -2.0753   -1.2056 C.ar      1 <0>         0.1674
      5 C5         -0.7287   -0.9208   -1.0634 C.ar      1 <0>        -0.1453
      6 C6         -0.7240   -0.2363    0.1358 C.ar      1 <0>        -0.0649
      7 C7          0.0316   -0.7026    1.1972 C.ar      1 <0>        -0.1099
      8 Br1         0.0290    0.2329    2.8406 Br        1 <0>        -0.0462
      9 N1          0.0278   -2.7709   -2.4201 N.am      1 <0>        -0.6698
     10 C8          0.1477   -4.1133   -2.4281 C.2       1 <0>         0.5023
     11 O1          0.1616   -4.7271   -1.3821 O.2       1 <0>        -0.4989
     12 C9          0.2646   -4.8515   -3.7366 C.3       1 <0>         0.1141
     13 N2          0.3826   -6.2886   -3.4777 N.am      1 <0>        -0.3982
     14 C10        -0.7383   -7.0271   -3.4149 C.2       1 <0>         0.5628
     15 O2         -1.8272   -6.5007   -3.5723 O.2       1 <0>        -0.4937
     16 C11        -0.6478   -8.4755   -3.1556 C.2       1 <0>         0.0718
     17 C12         0.6533   -8.9822   -2.9894 C.2       1 <0>        -0.2189
     18 C13         1.8133   -8.1246   -3.0705 C.2       1 <0>         0.2721
     19 N3          1.6555   -6.8377   -3.3116 N.2       1 <0>        -0.1994
     20 C14         3.1667   -8.6865   -2.8911 C.2       1 <0>         0.0073
     21 C15         4.3336   -7.9888   -2.9382 C.2       1 <0>        -0.1270
     22 C16         5.3703   -8.9165   -2.7159 C.2       1 <0>        -0.2176
     23 C17         4.7919  -10.1218   -2.5459 C.2       1 <0>        -0.0022
     24 O3          3.4605   -9.9783   -2.6466 O.3       1 <0>        -0.1656
     25 S1          0.3459  -10.7037   -2.7069 S.3       1 <0>         0.2426
     26 C18        -1.3342  -10.6583   -2.8151 C.2       1 <0>         0.0724
     27 N4         -1.6039   -9.4050   -3.0502 N.2       1 <0>        -0.4802
     28 C19        -2.3032  -11.8037   -2.6734 C.3       1 <0>        -0.0718
     29 H1          1.0241   -3.0384    2.8134 H         1 <0>         0.0802
     30 H2          2.4996   -2.8686    1.8325 H         1 <0>         0.0729
     31 H3          1.9317   -1.5073    2.8287 H         1 <0>         0.0793
     32 H4          1.3833   -3.4351   -0.2487 H         1 <0>         0.1420
     33 H5         -1.3217   -0.5586   -1.8902 H         1 <0>         0.1367
     34 H6         -1.3137    0.6617    0.2467 H         1 <0>         0.1386
     35 H7         -0.0603   -2.2868   -3.2560 H         1 <0>         0.4164
     36 H8         -0.6227   -4.6628   -4.3408 H         1 <0>         0.1394
     37 H9          1.1488   -4.5050   -4.2716 H         1 <0>         0.1383
     38 H10         4.4440   -6.9287   -3.1129 H         1 <0>         0.1618
     39 H11         6.4284   -8.7023   -2.6875 H         1 <0>         0.1597
     40 H12         5.3126  -11.0487   -2.3556 H         1 <0>         0.2150
     41 H13        -2.5971  -11.9039   -1.6286 H         1 <0>         0.0991
     42 H14        -3.1863  -11.6100   -3.2823 H         1 <0>         0.1008
     43 H15        -1.8270  -12.7258   -3.0070 H         1 <0>         0.0949
@<TRIPOS>BOND
     1    1    2 1
     2    1   29 1
     3    1   30 1
     4    1   31 1
     5    2    7 ar
     6    2    3 ar
     7    3    4 ar
     8    3   32 1
     9    4    5 ar
    10    4    9 1
    11    5    6 ar
    12    5   33 1
    13    6    7 ar
    14    6   34 1
    15    7    8 1
    16    9   10 am
    17    9   35 1
    18   10   11 2
    19   10   12 1
    20   12   13 1
    21   12   36 1
    22   12   37 1
    23   13   19 1
    24   13   14 am
    25   14   15 2
    26   14   16 1
    27   16   27 1
    28   16   17 2
    29   17   18 1
    30   17   25 1
    31   18   19 2
    32   18   20 1
    33   20   24 1
    34   20   21 2
    35   21   22 1
    36   21   38 1
    37   22   23 2
    38   22   39 1
    39   23   24 1
    40   23   40 1
    41   25   26 1
    42   26   27 2
    43   26   28 1
    44   28   41 1
    45   28   42 1
    46   28   43 1
@<TRIPOS>MOLECULE
ZINC57391224
   56    59     0     0     0
SMALL
USER_CHARGES

@<TRIPOS>ATOM
      1 C1         -0.0520    1.5025    0.0099 C.3       1 <0>        -0.0892
      2 C2         -0.0202   -0.0041    0.0017 C.2       1 <0>         0.0284
      3 C3         -0.0093   -0.7800   -1.0963 C.2       1 <0>        -0.1647
      4 C4          0.0224   -2.1688   -0.6247 C.2       1 <0>        -0.2384
      5 C5          0.0279   -2.1079    0.7419 C.2       1 <0>         0.1303
      6 N1          0.0082   -0.8045    1.1092 N.pl3     1 <0>        -0.3971
      7 C6          0.0121   -0.3434    2.4330 C.ar      1 <0>         0.1054
      8 C7          1.1171   -0.5655    3.2436 C.ar      1 <0>        -0.1062
      9 C8          1.1182   -0.1096    4.5474 C.ar      1 <0>        -0.1054
     10 C9          0.0201    0.5671    5.0456 C.ar      1 <0>        -0.1065
     11 C10        -1.0822    0.7895    4.2408 C.ar      1 <0>        -0.1062
     12 C11        -1.0867    0.3414    2.9343 C.ar      1 <0>        -0.1076
     13 C12         0.0568   -3.2885    1.6780 C.3       1 <0>        -0.0995
     14 C13         0.0434   -3.3841   -1.4555 C.2       1 <0>         0.5959
     15 O1          0.0688   -4.4804   -0.9289 O.2       1 <0>        -0.5233
     16 N2          0.0346   -3.2820   -2.7993 N.am      1 <0>        -0.6699
     17 C14         0.1522   -4.4315   -3.5893 C.ar      1 <0>         0.1269
     18 C15         0.8480   -4.3817   -4.7903 C.ar      1 <0>        -0.0641
     19 C16         0.9628   -5.5169   -5.5682 C.ar      1 <0>        -0.1472
     20 C17         0.3843   -6.7044   -5.1517 C.ar      1 <0>         0.1744
     21 C18        -0.3101   -6.7560   -3.9551 C.ar      1 <0>        -0.6977
     22 C19        -0.4217   -5.6245   -3.1707 C.ar      1 <0>         0.0009
     23 S1         -1.0454   -8.2682   -3.4285 S.o2      1 <0>         2.6912
     24 O2         -0.0468   -9.2712   -3.5554 O.2       1 <0>        -0.9393
     25 O3         -1.6984   -7.9949   -2.1963 O.2       1 <0>        -0.9401
     26 N3         -2.2328   -8.6417   -4.5207 N.pl3     1 <0>        -0.9976
     27 C20        -3.6112   -8.1610   -4.3351 C.3       1 <0>         0.0846
     28 C21        -4.0721   -7.4994   -5.6389 C.3       1 <0>         0.0468
     29 O4         -3.8554   -8.4014   -6.7266 O.3       1 <0>        -0.3744
     30 C22        -2.4830   -8.7387   -6.9427 C.3       1 <0>         0.0481
     31 C23        -1.9394   -9.4590   -5.7087 C.3       1 <0>         0.0810
     32 F1          0.4974   -7.8137   -5.9145 F         1 <0>        -0.1231
     33 H1          0.9677    1.8875    0.0012 H         1 <0>         0.0742
     34 H2         -0.5826    1.8595   -0.8728 H         1 <0>         0.0843
     35 H3         -0.5640    1.8503    0.9071 H         1 <0>         0.0673
     36 H4         -0.0218   -0.4464   -2.1234 H         1 <0>         0.1490
     37 H5          1.9748   -1.0946    2.8552 H         1 <0>         0.1298
     38 H6          1.9775   -0.2821    5.1784 H         1 <0>         0.1343
     39 H7          0.0231    0.9224    6.0655 H         1 <0>         0.1321
     40 H8         -1.9385    1.3180    4.6328 H         1 <0>         0.1343
     41 H9         -1.9460    0.5192    2.3048 H         1 <0>         0.1303
     42 H10         1.0911   -3.5518    1.8989 H         1 <0>         0.0808
     43 H11        -0.4583   -3.0310    2.6035 H         1 <0>         0.0670
     44 H12        -0.4417   -4.1366    1.2086 H         1 <0>         0.1046
     45 H13        -0.0532   -2.4120   -3.2191 H         1 <0>         0.4154
     46 H14         1.2987   -3.4558   -5.1157 H         1 <0>         0.1471
     47 H15         1.5038   -5.4786   -6.5021 H         1 <0>         0.1517
     48 H16        -0.9594   -5.6664   -2.2350 H         1 <0>         0.1707
     49 H17        -4.2643   -9.0010   -4.0988 H         1 <0>         0.0885
     50 H18        -3.6401   -7.4334   -3.5240 H         1 <0>         0.1005
     51 H19        -5.1333   -7.2601   -5.5703 H         1 <0>         0.1093
     52 H20        -3.5019   -6.5854   -5.8047 H         1 <0>         0.0553
     53 H21        -2.4009   -9.3909   -7.8122 H         1 <0>         0.1099
     54 H22        -1.9071   -7.8292   -7.1133 H         1 <0>         0.0550
     55 H23        -0.8619   -9.5906   -5.8067 H         1 <0>         0.1049
     56 H24        -2.4214  -10.4320   -5.6130 H         1 <0>         0.0872
@<TRIPOS>BOND
     1    1    2 1
     2    1   33 1
     3    1   34 1
     4    1   35 1
     5    2    6 1
     6    2    3 2
     7    3    4 1
     8    3   36 1
     9    4    5 2
    10    4   14 1
    11    5    6 1
    12    5   13 1
    13    6    7 1
    14    7   12 ar
    15    7    8 ar
    16    8    9 ar
    17    8   37 1
    18    9   10 ar
    19    9   38 1
    20   10   11 ar
    21   10   39 1
    22   11   12 ar
    23   11   40 1
    24   12   41 1
    25   13   42 1
    26   13   43 1
    27   13   44 1
    28   14   15 2
    29   14   16 am
    30   16   17 1
    31   16   45 1
    32   17   22 ar
    33   17   18 ar
    34   18   19 ar
    35   18   46 1
    36   19   20 ar
    37   19   47 1
    38   20   21 ar
    39   20   32 1
    40   21   22 ar
    41   21   23 1
    42   22   48 1
    43   23   24 2
    44   23   25 2
    45   23   26 1
    46   26   31 1
    47   26   27 1
    48   27   28 1
    49   27   49 1
    50   27   50 1
    51   28   29 1
    52   28   51 1
    53   28   52 1
    54   29   30 1
    55   30   31 1
    56   30   53 1
    57   30   54 1
    58   31   55 1
    59   31   56 1
@<TRIPOS>MOLECULE
ZINC03366497
   61    64     0     0     0
SMALL
USER_CHARGES
[2-[1-(4-fluorophenyl)-2,5-dimethyl-pyrrol-3-yl]-2-oxo-ethyl] 3-[5-chloro-1-(1,1-dioxothiolan-3-yl)-3-methyl-pyrazol-4-yl]prop-2-enoate
@<TRIPOS>ATOM
      1 C1          2.2885    3.1329  -15.4631 C.3       1 <0>        -0.0880
      2 C2          1.4015    3.5627  -14.3232 C.2       1 <0>         0.0187
      3 C3          1.3831    3.0089  -13.0993 C.2       1 <0>        -0.1479
      4 C4          0.3737    3.7449  -12.3258 C.2       1 <0>        -0.2614
      5 C5         -0.1404    4.6988  -13.1844 C.2       1 <0>         0.1268
      6 N1          0.4880    4.5786  -14.3696 N.pl3     1 <0>        -0.3919
      7 C6          0.2371    5.3787  -15.4935 C.ar      1 <0>         0.0930
      8 C7          0.5213    6.7371  -15.4570 C.ar      1 <0>        -0.0761
      9 C8          0.2784    7.5225  -16.5667 C.ar      1 <0>        -0.1400
     10 C9         -0.2582    6.9579  -17.7118 C.ar      1 <0>         0.1149
     11 C10        -0.5476    5.6041  -17.7480 C.ar      1 <0>        -0.1405
     12 C11        -0.3012    4.8145  -16.6421 C.ar      1 <0>        -0.0750
     13 F1         -0.4999    7.7287  -18.7946 F         1 <0>        -0.1302
     14 C12        -1.2150    5.7014  -12.8509 C.3       1 <0>        -0.0997
     15 C13        -0.0130    3.5116  -10.9331 C.2       1 <0>         0.4289
     16 O1         -0.8686    4.2005  -10.4174 O.2       1 <0>        -0.4462
     17 C14         0.6515    2.4160  -10.1399 C.3       1 <0>         0.0419
     18 O2          0.1076    2.3874   -8.8187 O.3       1 <0>        -0.3334
     19 C15         0.5987    1.4564   -7.9741 C.2       1 <0>         0.5056
     20 O3          1.4655    0.6899   -8.3507 O.2       1 <0>        -0.5124
     21 C16         0.1055    1.3715   -6.6506 C.2       1 <0>        -0.2004
     22 C17         0.5976    0.4384   -5.8041 C.2       1 <0>         0.0500
     23 C18         0.0860    0.3503   -4.4311 C.2       1 <0>        -0.2086
     24 C19        -0.3643   -0.8195   -3.7748 C.2       1 <0>         0.1203
     25 N2         -0.7326   -0.4897   -2.5681 N.2       1 <0>        -0.2670
     26 N3         -0.5500    0.8867   -2.3954 N.pl3     1 <0>        -0.3440
     27 C20        -0.0466    1.3971   -3.5329 C.2       1 <0>         0.1471
     28 Cl1         0.3615    3.0594   -3.8225 Cl        1 <0>         0.0193
     29 C21        -0.8509    1.6435   -1.1777 C.3       1 <0>         0.1530
     30 H1         -0.6158    2.6967   -1.3314 H         1 <0>         0.1286
     31 C22        -2.3398    1.4902   -0.8254 C.3       1 <0>        -0.1363
     32 C23        -2.5986    2.0085    0.6098 C.3       1 <0>        -0.5724
     33 S1         -0.9785    1.7312    1.4382 S.o2      1 <0>         2.3781
     34 O4         -1.1225    0.6978    2.4029 O.2       1 <0>        -0.9214
     35 O5         -0.4395    2.9858    1.8317 O.2       1 <0>        -0.9231
     36 C24        -0.0127    1.0858    0.0080 C.3       1 <0>        -0.5964
     37 C25        -0.4048   -2.2056   -4.3648 C.3       1 <0>        -0.0809
     38 H2          1.7814    2.3665  -16.0491 H         1 <0>         0.0746
     39 H3          2.5055    3.9917  -16.0984 H         1 <0>         0.0656
     40 H4          3.2203    2.7298  -15.0664 H         1 <0>         0.0854
     41 H5          1.9899    2.1854  -12.7527 H         1 <0>         0.1542
     42 H6          0.9356    7.1787  -14.5627 H         1 <0>         0.1415
     43 H7          0.5035    8.5785  -16.5403 H         1 <0>         0.1482
     44 H8         -0.9667    5.1656  -18.6416 H         1 <0>         0.1482
     45 H9         -0.5274    3.7589  -16.6706 H         1 <0>         0.1419
     46 H10        -0.7560    6.6097  -12.4604 H         1 <0>         0.0826
     47 H11        -1.7823    5.9389  -13.7508 H         1 <0>         0.0683
     48 H12        -1.8840    5.2808  -12.1001 H         1 <0>         0.1020
     49 H13         1.6352    2.5891  -10.0917 H         1 <0>         0.0896
     50 H14         0.4747    1.4568  -10.6265 H         1 <0>         0.1017
     51 H15        -0.6638    2.0517   -6.3164 H         1 <0>         0.1388
     52 H16         1.3670   -0.2418   -6.1383 H         1 <0>         0.1470
     53 H17        -2.9397    2.0646   -1.5313 H         1 <0>         0.1061
     54 H18        -2.6196    0.4385   -0.8863 H         1 <0>         0.1071
     55 H19        -2.8502    3.0690    0.5983 H         1 <0>         0.1468
     56 H20        -3.3868    1.4311    1.0930 H         1 <0>         0.1522
     57 H21         0.0021   -0.0041    0.0020 H         1 <0>         0.1569
     58 H22         0.9991    1.4911    0.0005 H         1 <0>         0.1504
     59 H23         0.5382   -2.7139   -4.1635 H         1 <0>         0.0886
     60 H24        -1.2236   -2.7679   -3.9159 H         1 <0>         0.0833
     61 H25        -0.5583   -2.1377   -5.4418 H         1 <0>         0.0860
@<TRIPOS>BOND
     1    1    2 1
     2    1   38 1
     3    1   39 1
     4    1   40 1
     5    2    6 1
     6    2    3 2
     7    3    4 1
     8    3   41 1
     9    4    5 2
    10    4   15 1
    11    5    6 1
    12    5   14 1
    13    6    7 1
    14    7   12 ar
    15    7    8 ar
    16    8    9 ar
    17    8   42 1
    18    9   10 ar
    19    9   43 1
    20   10   11 ar
    21   10   13 1
    22   11   12 ar
    23   11   44 1
    24   12   45 1
    25   14   46 1
    26   14   47 1
    27   14   48 1
    28   15   16 2
    29   15   17 1
    30   17   18 1
    31   17   49 1
    32   17   50 1
    33   18   19 1
    34   19   20 2
    35   19   21 1
    36   21   22 2
    37   21   51 1
    38   22   23 1
    39   22   52 1
    40   23   27 2
    41   23   24 1
    42   24   25 2
    43   24   37 1
    44   25   26 1
    45   26   27 1
    46   26   29 1
    47   27   28 1
    48   29   30 1
    49   29   36 1
    50   29   31 1
    51   31   32 1
    52   31   53 1
    53   31   54 1
    54   32   33 1
    55   32   55 1
    56   32   56 1
    57   33   34 2
    58   33   35 2
    59   33   36 1
    60   36   57 1
    61   36   58 1
    62   37   59 1
    63   37   60 1
    64   37   61 1
@<TRIPOS>MOLECULE
ZINC12542022
   63    67     0     0     0
SMALL
USER_CHARGES
[2-[[(3S)-1,1-dioxothiolan-3-yl]-methyl-amino]-2-oxo-ethyl] 3-methyl-1,6-diphenyl-pyrazolo[5,4-b]pyridine-4-carboxylate
@<TRIPOS>ATOM
      1 C1         -3.6451    3.8641   -0.1605 C.3       1 <0>        -0.0727
      2 C2         -2.1588    4.1117   -0.1366 C.2       1 <0>         0.1214
      3 C3         -1.1691    3.1490    0.1527 C.ar      1 <0>        -0.1791
      4 C4         -1.2084    1.7727    0.4775 C.ar      1 <0>         0.0123
      5 C5         -0.0005    1.1233    0.7093 C.ar      1 <0>        -0.1424
      6 C6          1.1936    1.8427    0.6030 C.ar      1 <0>         0.2443
      7 N1          1.1988    3.1282    0.2921 N.ar      1 <0>        -0.4708
      8 C7          0.0797    3.7981    0.0664 C.ar      1 <0>         0.3266
      9 N2         -0.1866    5.1048   -0.2651 N.pl3     1 <0>        -0.3349
     10 N3         -1.5742    5.2509   -0.3792 N.2       1 <0>        -0.2260
     11 C8          0.7646    6.1147   -0.4556 C.ar      1 <0>         0.1566
     12 C9          1.9171    6.1402    0.3189 C.ar      1 <0>        -0.1141
     13 C10         2.8560    7.1342    0.1246 C.ar      1 <0>        -0.0989
     14 C11         2.6439    8.1103   -0.8317 C.ar      1 <0>        -0.1194
     15 C12         1.4949    8.0908   -1.6009 C.ar      1 <0>        -0.1017
     16 C13         0.5548    7.0962   -1.4154 C.ar      1 <0>        -0.1123
     17 C14         2.4820    1.1495    0.8444 C.ar      1 <0>        -0.0629
     18 C15         2.4965   -0.2036    1.1792 C.ar      1 <0>        -0.0896
     19 C16         3.6989   -0.8450    1.3967 C.ar      1 <0>        -0.1227
     20 C17         4.8877   -0.1449    1.2947 C.ar      1 <0>        -0.0981
     21 C18         4.8791    1.1995    0.9688 C.ar      1 <0>        -0.1263
     22 C19         3.6830    1.8498    0.7430 C.ar      1 <0>        -0.0705
     23 C20        -2.4931    1.0490    0.5733 C.2       1 <0>         0.5141
     24 O1         -3.4641    1.5965    1.0559 O.2       1 <0>        -0.4746
     25 O2         -2.5875   -0.2180    0.1254 O.3       1 <0>        -0.3216
     26 C21        -3.8802   -0.8672    0.2514 C.3       1 <0>         0.0497
     27 C22        -3.7946   -2.2679   -0.2980 C.2       1 <0>         0.5193
     28 O3         -2.7472   -2.6786   -0.7511 O.2       1 <0>        -0.5041
     29 N4         -4.8819   -3.0642   -0.2858 N.am      1 <0>        -0.6005
     30 C23        -6.1470   -2.5680    0.2616 C.3       1 <0>         0.0586
     31 C24        -4.7987   -4.4258   -0.8198 C.3       1 <0>         0.1365
     32 H1         -3.7917   -4.6143   -1.1920 H         1 <0>         0.1292
     33 C25        -5.1421   -5.4388    0.2849 C.3       1 <0>        -0.1386
     34 C26        -5.3706   -6.8384   -0.3351 C.3       1 <0>        -0.5751
     35 S1         -5.9600   -6.4378   -2.0306 S.o2      1 <0>         2.3752
     36 O4         -5.0255   -6.9406   -2.9757 O.2       1 <0>        -0.9265
     37 O5         -7.3298   -6.7994   -2.1413 O.2       1 <0>        -0.9304
     38 C27        -5.8267   -4.6012   -1.9739 C.3       1 <0>        -0.5971
     39 H2         -4.0427    3.9414    0.8514 H         1 <0>         0.0958
     40 H3         -4.1268    4.6056   -0.7978 H         1 <0>         0.0791
     41 H4         -3.8409    2.8660   -0.5525 H         1 <0>         0.0808
     42 H5          0.0151    0.0740    0.9643 H         1 <0>         0.1610
     43 H6          2.0811    5.3808    1.0692 H         1 <0>         0.1334
     44 H7          3.7546    7.1520    0.7234 H         1 <0>         0.1335
     45 H8          3.3774    8.8894   -0.9784 H         1 <0>         0.1302
     46 H9          1.3323    8.8544   -2.3472 H         1 <0>         0.1332
     47 H10        -0.3424    7.0815   -2.0164 H         1 <0>         0.1325
     48 H11         1.5688   -0.7500    1.2638 H         1 <0>         0.1306
     49 H12         3.7117   -1.8943    1.6518 H         1 <0>         0.1301
     50 H13         5.8261   -0.6499    1.4698 H         1 <0>         0.1268
     51 H14         5.8102    1.7411    0.8905 H         1 <0>         0.1284
     52 H15         3.6775    2.8993    0.4880 H         1 <0>         0.1354
     53 H16        -4.1663   -0.9060    1.3025 H         1 <0>         0.1102
     54 H17        -4.6263   -0.3026   -0.3077 H         1 <0>         0.1097
     55 H18        -6.7263   -2.0966   -0.5323 H         1 <0>         0.0702
     56 H19        -6.7133   -3.4004    0.6795 H         1 <0>         0.0847
     57 H20        -5.9426   -1.8380    1.0448 H         1 <0>         0.0816
     58 H21        -4.3196   -5.4890    0.9983 H         1 <0>         0.1031
     59 H22        -6.0485   -5.1197    0.7995 H         1 <0>         0.0931
     60 H23        -4.4379   -7.4013   -0.3731 H         1 <0>         0.1445
     61 H24        -6.1321   -7.3871    0.2192 H         1 <0>         0.1469
     62 H25        -6.7836   -4.1439   -1.7222 H         1 <0>         0.1446
     63 H26        -5.4375   -4.2053   -2.9119 H         1 <0>         0.1478
@<TRIPOS>BOND
     1    1    2 1
     2    1   39 1
     3    1   40 1
     4    1   41 1
     5    2   10 2
     6    2    3 1
     7    3    8 ar
     8    3    4 ar
     9    4    5 ar
    10    4   23 1
    11    5    6 ar
    12    5   42 1
    13    6    7 ar
    14    6   17 1
    15    7    8 ar
    16    8    9 1
    17    9   10 1
    18    9   11 1
    19   11   16 ar
    20   11   12 ar
    21   12   13 ar
    22   12   43 1
    23   13   14 ar
    24   13   44 1
    25   14   15 ar
    26   14   45 1
    27   15   16 ar
    28   15   46 1
    29   16   47 1
    30   17   22 ar
    31   17   18 ar
    32   18   19 ar
    33   18   48 1
    34   19   20 ar
    35   19   49 1
    36   20   21 ar
    37   20   50 1
    38   21   22 ar
    39   21   51 1
    40   22   52 1
    41   23   24 2
    42   23   25 1
    43   25   26 1
    44   26   27 1
    45   26   53 1
    46   26   54 1
    47   27   28 2
    48   27   29 am
    49   29   30 1
    50   29   31 1
    51   30   55 1
    52   30   56 1
    53   30   57 1
    54   31   32 1
    55   31   38 1
    56   31   33 1
    57   33   34 1
    58   33   58 1
    59   33   59 1
    60   34   35 1
    61   34   60 1
    62   34   61 1
    63   35   36 2
    64   35   37 2
    65   35   38 1
    66   38   62 1
    67   38   63 1
@<TRIPOS>MOLECULE
ZINC35515496
   65    69     0     0     0
SMALL
USER_CHARGES

@<TRIPOS>ATOM
      1 C1         -0.0187    1.5258    0.0104 C.3       1 <0>        -0.1523
      2 C2          0.0021   -0.0041    0.0020 C.3       1 <0>         0.0524
      3 O1         -1.3386   -0.4987    0.0122 O.3       1 <0>        -0.3021
      4 C3         -1.4984   -1.8492    0.0064 C.ar      1 <0>         0.1157
      5 C4         -0.3893   -2.6797   -0.0028 C.ar      1 <0>        -0.1729
      6 C5         -0.5535   -4.0523   -0.0082 C.ar      1 <0>        -0.0933
      7 C6         -1.8231   -4.5996   -0.0047 C.ar      1 <0>        -0.1000
      8 C7         -2.9339   -3.7768    0.0040 C.ar      1 <0>        -0.1402
      9 C8         -2.7762   -2.4001    0.0157 C.ar      1 <0>         0.1067
     10 O2         -3.8679   -1.5893    0.0304 O.3       1 <0>        -0.3018
     11 C9         -5.1479   -2.2246    0.0392 C.3       1 <0>         0.0523
     12 C10        -6.2459   -1.1592    0.0553 C.3       1 <0>        -0.1518
     13 C11        -1.9964   -6.0966   -0.0111 C.3       1 <0>         0.2336
     14 H1         -2.9974   -6.3602    0.3306 H         1 <0>         0.1184
     15 C12        -1.7617   -6.6366   -1.3836 C.2       1 <0>        -0.2433
     16 C13        -2.4552   -6.3874   -2.6517 C.2       1 <0>         0.4570
     17 O3         -3.2859   -5.5080   -2.7962 O.2       1 <0>        -0.4236
     18 C14        -2.0481   -7.3086   -3.7427 C.ar      1 <0>        -0.2020
     19 C15        -2.7529   -7.3323   -4.9460 C.ar      1 <0>        -0.0216
     20 C16        -2.3642   -8.1974   -5.9458 C.ar      1 <0>        -0.0628
     21 C17        -1.2766   -9.0400   -5.7528 C.ar      1 <0>        -0.0448
     22 C18        -0.5729   -9.0231   -4.5702 C.ar      1 <0>        -0.1205
     23 C19        -0.9451   -8.1550   -3.5439 C.ar      1 <0>         0.1473
     24 O4         -0.2301   -8.1523   -2.3955 O.3       1 <0>        -0.1779
     25 C20        -0.7032   -7.4974   -1.3171 C.2       1 <0>         0.0902
     26 C21        -0.2329   -7.5447    0.0784 C.2       1 <0>         0.5712
     27 O5          0.6947   -8.2202    0.4776 O.2       1 <0>        -0.4791
     28 N1         -0.9831   -6.7288    0.8495 N.am      1 <0>        -0.5904
     29 C22        -0.8179   -6.5094    2.2885 C.3       1 <0>         0.1430
     30 C23        -1.6684   -7.5208    3.0596 C.3       1 <0>         0.0369
     31 N2         -1.5027   -7.3009    4.5026 N.3       1 <0>        -0.5325
     32 C24        -2.0636   -6.0030    4.9055 C.3       1 <0>         0.0116
     33 C25        -1.8169   -5.7887    6.4012 C.3       1 <0>         0.0630
     34 O6         -2.3877   -6.8762    7.1339 O.3       1 <0>        -0.3844
     35 C26        -1.8638   -8.1554    6.7674 C.3       1 <0>         0.0632
     36 C27        -2.1109   -8.3936    5.2754 C.3       1 <0>         0.0193
     37 Cl1        -3.2345   -8.2346   -7.4474 Cl        1 <0>        -0.0462
     38 H2          1.0039    1.9031    0.0027 H         1 <0>         0.0793
     39 H3         -0.5459    1.8868   -0.8726 H         1 <0>         0.0671
     40 H4         -0.5289    1.8773    0.9072 H         1 <0>         0.0672
     41 H5          0.5123   -0.3556   -0.8948 H         1 <0>         0.0619
     42 H6          0.5293   -0.3651    0.8851 H         1 <0>         0.0624
     43 H7          0.6036   -2.2546   -0.0062 H         1 <0>         0.1378
     44 H8          0.3118   -4.6985   -0.0154 H         1 <0>         0.1222
     45 H9         -3.9246   -4.2069    0.0063 H         1 <0>         0.1380
     46 H10        -5.2534   -2.8416   -0.8531 H         1 <0>         0.0646
     47 H11        -5.2364   -2.8511    0.9267 H         1 <0>         0.0601
     48 H12        -6.1404   -0.5422    0.9476 H         1 <0>         0.0665
     49 H13        -6.1573   -0.5327   -0.8322 H         1 <0>         0.0673
     50 H14        -7.2222   -1.6438    0.0620 H         1 <0>         0.0788
     51 H15        -3.5985   -6.6769   -5.0933 H         1 <0>         0.1564
     52 H16        -0.9795   -9.7163   -6.5407 H         1 <0>         0.1555
     53 H17         0.2702   -9.6846   -4.4362 H         1 <0>         0.1587
     54 H18         0.2307   -6.6366    2.5574 H         1 <0>         0.1041
     55 H19        -1.1376   -5.4984    2.5410 H         1 <0>         0.0936
     56 H20        -2.7170   -7.3936    2.7907 H         1 <0>         0.0423
     57 H21        -1.3487   -8.5318    2.8071 H         1 <0>         0.0848
     58 H22        -1.5810   -5.2064    4.3392 H         1 <0>         0.0885
     59 H23        -3.1355   -5.9927    4.7082 H         1 <0>         0.0461
     60 H24        -0.7443   -5.7454    6.5906 H         1 <0>         0.0619
     61 H25        -2.2808   -4.8541    6.7163 H         1 <0>         0.0997
     62 H26        -0.7926   -8.1809    6.9675 H         1 <0>         0.0622
     63 H27        -2.3617   -8.9324    7.3474 H         1 <0>         0.1003
     64 H28        -3.1837   -8.4215    5.0840 H         1 <0>         0.0452
     65 H29        -1.6630   -9.3421    4.9791 H         1 <0>         0.0890
@<TRIPOS>BOND
     1    1    2 1
     2    1   38 1
     3    1   39 1
     4    1   40 1
     5    2    3 1
     6    2   41 1
     7    2   42 1
     8    3    4 1
     9    4    9 ar
    10    4    5 ar
    11    5    6 ar
    12    5   43 1
    13    6    7 ar
    14    6   44 1
    15    7    8 ar
    16    7   13 1
    17    8    9 ar
    18    8   45 1
    19    9   10 1
    20   10   11 1
    21   11   12 1
    22   11   46 1
    23   11   47 1
    24   12   48 1
    25   12   49 1
    26   12   50 1
    27   13   14 1
    28   13   28 1
    29   13   15 1
    30   15   25 2
    31   15   16 1
    32   16   17 2
    33   16   18 1
    34   18   23 ar
    35   18   19 ar
    36   19   20 ar
    37   19   51 1
    38   20   21 ar
    39   20   37 1
    40   21   22 ar
    41   21   52 1
    42   22   23 ar
    43   22   53 1
    44   23   24 1
    45   24   25 1
    46   25   26 1
    47   26   27 2
    48   26   28 am
    49   28   29 1
    50   29   30 1
    51   29   54 1
    52   29   55 1
    53   30   31 1
    54   30   56 1
    55   30   57 1
    56   31   36 1
    57   31   32 1
    58   32   33 1
    59   32   58 1
    60   32   59 1
    61   33   34 1
    62   33   60 1
    63   33   61 1
    64   34   35 1
    65   35   36 1
    66   35   62 1
    67   35   63 1
    68   36   64 1
    69   36   65 1
@<TRIPOS>MOLECULE
ZINC39459453
   58    61     0     0     0
SMALL
USER_CHARGES

@<TRIPOS>ATOM
      1 C1          0.5592    0.0915   -1.1368 C.3       1 <0>        -0.1160
      2 C2          0.2188   -1.3059   -0.6870 C.2       1 <0>         0.1358
      3 C3         -0.0184   -2.3678   -1.5034 C.2       1 <0>        -0.1647
      4 C4         -0.2968   -3.4720   -0.6908 C.2       1 <0>        -0.0474
      5 C5         -0.2068   -3.0496    0.6119 C.2       1 <0>         0.0240
      6 N1          0.1023   -1.7215    0.6109 N.pl3     1 <0>        -0.7933
      7 S1          0.2998   -0.7720    1.9532 S.o2      1 <0>         2.7489
      8 O1          1.4963   -0.0317    1.7546 O.2       1 <0>        -0.9372
      9 O2         -0.9524   -0.1454    2.1953 O.2       1 <0>        -0.9076
     10 O3          0.5548   -1.7034    3.1296 O.3       1 <0>        -0.6456
     11 C6          1.8660   -2.0040    3.3226 C.ar      1 <0>         0.0541
     12 C7          2.4630   -3.0155    2.5843 C.ar      1 <0>        -0.1332
     13 C8          3.7961   -3.3187    2.7820 C.ar      1 <0>        -0.0872
     14 C9          4.5353   -2.6154    3.7151 C.ar      1 <0>        -0.0943
     15 C10         3.9426   -1.6072    4.4525 C.ar      1 <0>        -0.0972
     16 C11         2.6113   -1.2959    4.2542 C.ar      1 <0>        -0.0925
     17 C12        -0.4013   -3.9603    1.7540 C.ar      1 <0>         0.1943
     18 C13         0.2413   -5.2219    1.6813 C.ar      1 <0>        -0.0843
     19 C14         0.0512   -6.1373    2.7177 C.ar      1 <0>        -0.5811
     20 C15        -0.7436   -5.7522    3.7849 C.ar      1 <0>        -0.0700
     21 C16        -1.3183   -4.4913    3.7965 C.ar      1 <0>         0.1184
     22 N2         -1.1394   -3.6415    2.8028 N.ar      1 <0>        -0.4209
     23 S2          0.7980   -7.7325    2.6697 S.o2      1 <0>         2.4749
     24 O4          1.7182   -7.6697    1.5888 O.2       1 <0>        -0.9087
     25 O5          1.2533   -7.9597    3.9965 O.2       1 <0>        -0.9181
     26 C17        -0.5576   -8.8701    2.2709 C.3       1 <0>        -0.5621
     27 C18        -1.2022   -8.4514    0.9480 C.3       1 <0>        -0.1511
     28 C19        -0.0088  -10.2925    2.1432 C.3       1 <0>        -0.1472
     29 C20         1.1000   -5.5064    0.5341 C.2       1 <0>         0.3909
     30 O6          2.3050   -5.4838    0.6736 O.2       1 <0>        -0.3930
     31 C21         0.5176   -5.8288   -0.8233 C.3       1 <0>        -0.1507
     32 C22        -0.6493   -4.8722   -1.1094 C.3       1 <0>        -0.0675
     33 S3          0.0179   -2.3548   -3.2650 S.3       1 <0>        -0.0892
     34 C23         1.7388   -2.7594   -3.6715 C.3       1 <0>        -0.1456
     35 H1          1.6419    0.2170   -1.1450 H         1 <0>         0.1022
     36 H2          0.1667    0.2560   -2.1403 H         1 <0>         0.1175
     37 H3          0.1151    0.8124   -0.4503 H         1 <0>         0.0731
     38 H4          1.8858   -3.5656    1.8558 H         1 <0>         0.1327
     39 H5          4.2613   -4.1061    2.2074 H         1 <0>         0.1459
     40 H6          5.5774   -2.8543    3.8684 H         1 <0>         0.1414
     41 H7          4.5220   -1.0595    5.1810 H         1 <0>         0.1447
     42 H8          2.1499   -0.5053    4.8273 H         1 <0>         0.1409
     43 H9         -0.9152   -6.4330    4.6056 H         1 <0>         0.1638
     44 H10        -1.9271   -4.1971    4.6387 H         1 <0>         0.1819
     45 H11        -1.3039   -8.8385    3.0647 H         1 <0>         0.1446
     46 H12        -0.4784   -8.5613    0.1404 H         1 <0>         0.0815
     47 H13        -2.0672   -9.0840    0.7491 H         1 <0>         0.0910
     48 H14        -1.5200   -7.4108    1.0120 H         1 <0>         0.0680
     49 H15         0.4504  -10.5908    3.0857 H         1 <0>         0.0758
     50 H16        -0.8233  -10.9761    1.9036 H         1 <0>         0.0925
     51 H17         0.7375  -10.3241    1.3494 H         1 <0>         0.0788
     52 H18         1.2851   -5.7063   -1.5875 H         1 <0>         0.1095
     53 H19         0.1562   -6.8571   -0.8298 H         1 <0>         0.1155
     54 H20        -1.5293   -5.2025   -0.5575 H         1 <0>         0.0865
     55 H21        -0.8715   -4.8840   -2.1764 H         1 <0>         0.1106
     56 H22         1.8622   -2.7755   -4.7544 H         1 <0>         0.1079
     57 H23         2.4002   -2.0073   -3.2416 H         1 <0>         0.0786
     58 H24         1.9880   -3.7387   -3.2629 H         1 <0>         0.0795
@<TRIPOS>BOND
     1    1    2 1
     2    1   35 1
     3    1   36 1
     4    1   37 1
     5    2    6 1
     6    2    3 2
     7    3    4 1
     8    3   33 1
     9    4   32 1
    10    4    5 2
    11    5    6 1
    12    5   17 1
    13    6    7 1
    14    7    8 2
    15    7    9 2
    16    7   10 1
    17   10   11 1
    18   11   16 ar
    19   11   12 ar
    20   12   13 ar
    21   12   38 1
    22   13   14 ar
    23   13   39 1
    24   14   15 ar
    25   14   40 1
    26   15   16 ar
    27   15   41 1
    28   16   42 1
    29   17   22 ar
    30   17   18 ar
    31   18   19 ar
    32   18   29 1
    33   19   20 ar
    34   19   23 1
    35   20   21 ar
    36   20   43 1
    37   21   22 ar
    38   21   44 1
    39   23   24 2
    40   23   25 2
    41   23   26 1
    42   26   27 1
    43   26   28 1
    44   26   45 1
    45   27   46 1
    46   27   47 1
    47   27   48 1
    48   28   49 1
    49   28   50 1
    50   28   51 1
    51   29   30 2
    52   29   31 1
    53   31   32 1
    54   31   52 1
    55   31   53 1
    56   32   54 1
    57   32   55 1
    58   33   34 1
    59   34   56 1
    60   34   57 1
    61   34   58 1
@<TRIPOS>MOLECULE
ZINC57010834
   61    65     0     0     0
SMALL
USER_CHARGES

@<TRIPOS>ATOM
      1 C1         -0.0566    1.4795   -0.0481 C.3       1 <0>         0.0865
      2 N1         -0.0262    0.0148   -0.0450 N.am      1 <0>        -0.5104
      3 C2         -1.2121   -0.7015   -0.0302 C.2       1 <0>         0.3201
      4 C3         -1.1569   -2.0897   -0.0276 C.2       1 <0>        -0.1467
      5 C4          0.1020   -2.7279   -0.0401 C.2       1 <0>         0.5961
      6 O1          0.1765   -3.9436   -0.0385 O.2       1 <0>        -0.5119
      7 N2          1.2220   -1.9755   -0.0543 N.am      1 <0>        -0.5512
      8 C5          1.1539   -0.6330   -0.0622 C.2       1 <0>         0.7078
      9 O2          2.1842    0.0126   -0.0805 O.2       1 <0>        -0.5328
     10 C6          2.5318   -2.6315   -0.0673 C.3       1 <0>         0.0838
     11 N3         -2.4658   -2.5282   -0.0121 N.pl3     1 <0>        -0.3896
     12 C7         -3.2485   -1.4315   -0.0060 C.2       1 <0>         0.2983
     13 N4         -2.5022   -0.3566   -0.0167 N.2       1 <0>        -0.4888
     14 C8         -4.7554   -1.4413    0.0100 C.3       1 <0>         0.1290
     15 N5         -5.2303   -1.4418    1.4001 N.3       1 <0>        -0.5309
     16 C9         -4.8746   -0.1883    2.0784 C.3       1 <0>         0.0409
     17 C10        -5.2239   -0.2995    3.5663 C.3       1 <0>         0.1292
     18 N6         -6.6360   -0.6927    3.6866 N.pl3     1 <0>        -0.6297
     19 C11        -7.1002   -1.8620    2.9247 C.3       1 <0>         0.1264
     20 C12        -6.6770   -1.6892    1.4620 C.3       1 <0>         0.0375
     21 C13        -7.5130    0.0251    4.5031 C.ar      1 <0>         0.2205
     22 C14        -8.8658   -0.2901    4.5181 C.ar      1 <0>        -0.2007
     23 C15        -9.7300    0.4213    5.3269 C.ar      1 <0>        -0.0713
     24 C16        -9.2502    1.4468    6.1209 C.ar      1 <0>        -0.1800
     25 C17        -7.9041    1.7632    6.1084 C.ar      1 <0>        -0.0707
     26 C18        -7.0334    1.0521    5.3062 C.ar      1 <0>        -0.1994
     27 C19        -2.9180   -3.9217   -0.0046 C.3       1 <0>         0.1457
     28 C20        -3.0571   -4.3970    1.4187 C.ar      1 <0>        -0.1100
     29 C21        -1.9803   -4.9794    2.0610 C.ar      1 <0>        -0.0837
     30 C22        -2.1072   -5.4151    3.3665 C.ar      1 <0>        -0.1000
     31 C23        -3.3119   -5.2684    4.0304 C.ar      1 <0>        -0.0743
     32 C24        -4.3890   -4.6855    3.3873 C.ar      1 <0>        -0.0959
     33 C25        -4.2596   -4.2453    2.0835 C.ar      1 <0>        -0.0660
     34 Br1        -3.4863   -5.8648    5.8164 Br        1 <0>        -0.0479
     35 H1          0.9632    1.8640   -0.0652 H         1 <0>         0.1028
     36 H2         -0.5919    1.8300   -0.9305 H         1 <0>         0.0788
     37 H3         -0.5637    1.8343    0.8492 H         1 <0>         0.0785
     38 H4          2.8453   -2.7966   -1.0981 H         1 <0>         0.0767
     39 H5          3.2609   -1.9973    0.4370 H         1 <0>         0.0962
     40 H6          2.4638   -3.5888    0.4495 H         1 <0>         0.0953
     41 H7         -5.1299   -0.5547   -0.5016 H         1 <0>         0.0825
     42 H8         -5.1183   -2.3346   -0.4983 H         1 <0>         0.1018
     43 H9         -3.8056   -0.0058    1.9684 H         1 <0>         0.0931
     44 H10        -5.4323    0.6364    1.6346 H         1 <0>         0.0466
     45 H11        -4.5925   -1.0543    4.0352 H         1 <0>         0.0668
     46 H12        -5.0694    0.6641    4.0517 H         1 <0>         0.0862
     47 H13        -6.6491   -2.7669    3.3319 H         1 <0>         0.0691
     48 H14        -8.1862   -1.9313    2.9859 H         1 <0>         0.0896
     49 H15        -7.2096   -0.8436    1.0268 H         1 <0>         0.0487
     50 H16        -6.9152   -2.5953    0.9050 H         1 <0>         0.0889
     51 H17        -9.2413   -1.0904    3.8977 H         1 <0>         0.1206
     52 H18       -10.7819    0.1767    5.3391 H         1 <0>         0.1197
     53 H19        -9.9283    2.0020    6.7520 H         1 <0>         0.1172
     54 H20        -7.5326    2.5647    6.7297 H         1 <0>         0.1197
     55 H21        -5.9815    1.2968    5.3002 H         1 <0>         0.1201
     56 H22        -3.8825   -3.9934   -0.5075 H         1 <0>         0.1094
     57 H23        -2.1895   -4.5429   -0.5256 H         1 <0>         0.1162
     58 H24        -1.0400   -5.0943    1.5424 H         1 <0>         0.1409
     59 H25        -1.2661   -5.8704    3.8681 H         1 <0>         0.1329
     60 H26        -5.3297   -4.5707    3.9053 H         1 <0>         0.1318
     61 H27        -5.0993   -3.7866    1.5827 H         1 <0>         0.1403
@<TRIPOS>BOND
     1    1    2 1
     2    1   35 1
     3    1   36 1
     4    1   37 1
     5    2    8 am
     6    2    3 1
     7    3   13 1
     8    3    4 2
     9    4    5 1
    10    4   11 1
    11    5    6 2
    12    5    7 am
    13    7    8 am
    14    7   10 1
    15    8    9 2
    16   10   38 1
    17   10   39 1
    18   10   40 1
    19   11   12 1
    20   11   27 1
    21   12   13 2
    22   12   14 1
    23   14   15 1
    24   14   41 1
    25   14   42 1
    26   15   20 1
    27   15   16 1
    28   16   17 1
    29   16   43 1
    30   16   44 1
    31   17   18 1
    32   17   45 1
    33   17   46 1
    34   18   19 1
    35   18   21 1
    36   19   20 1
    37   19   47 1
    38   19   48 1
    39   20   49 1
    40   20   50 1
    41   21   26 ar
    42   21   22 ar
    43   22   23 ar
    44   22   51 1
    45   23   24 ar
    46   23   52 1
    47   24   25 ar
    48   24   53 1
    49   25   26 ar
    50   25   54 1
    51   26   55 1
    52   27   28 1
    53   27   56 1
    54   27   57 1
    55   28   33 ar
    56   28   29 ar
    57   29   30 ar
    58   29   58 1
    59   30   31 ar
    60   30   59 1
    61   31   32 ar
    62   31   34 1
    63   32   33 ar
    64   32   60 1
    65   33   61 1
@<TRIPOS>MOLECULE
ZINC01450031
   60    64     0     0     0
SMALL
USER_CHARGES
3-[(3-allyl-4-oxo-2-thioxo-thiazolidin-5-ylidene)methyl]-7-methyl-4-(4-phenylpiperazin-1-yl)-1,5-diazabicyclo[4.4.0]deca-3,5,7,9-tetraen-2-one
@<TRIPOS>ATOM
      1 C1          1.5116    3.9682    0.7645 C.3       1 <0>        -0.0942
      2 C2          1.3945    2.5156    0.3810 C.2       1 <0>        -0.1071
      3 C3          0.1719    1.9703    0.1226 C.2       1 <0>        -0.0227
      4 C4          0.0793    0.6179   -0.2333 C.2       1 <0>        -0.1580
      5 C5          1.1964   -0.1387   -0.3191 C.2       1 <0>         0.1003
      6 N1          2.4235    0.3970   -0.0627 N.am      1 <0>        -0.4275
      7 C6          2.5457    1.7130    0.2872 C.2       1 <0>         0.4293
      8 N2          3.7368    2.2547    0.5430 N.2       1 <0>        -0.5664
      9 C7          4.8536    1.5454    0.4693 C.2       1 <0>         0.4424
     10 C8          4.7891    0.1782    0.1109 C.2       1 <0>        -0.3620
     11 C9          3.5193   -0.3866   -0.1575 C.2       1 <0>         0.5399
     12 O1          3.4166   -1.5607   -0.4687 O.2       1 <0>        -0.5092
     13 C10         5.9638   -0.6047    0.0240 C.2       1 <0>         0.1645
     14 C11         6.9898   -0.2084   -0.7841 C.2       1 <0>        -0.2522
     15 C12         8.2702   -0.8005   -0.9788 C.2       1 <0>         0.5436
     16 O2          8.5901   -1.8124   -0.3799 O.2       1 <0>        -0.4686
     17 N3          9.1019   -0.2213   -1.8270 N.am      1 <0>        -0.5206
     18 C13         8.7471    0.9014   -2.4910 C.2       1 <0>         0.2768
     19 S1          9.6537    1.8109   -3.6232 S.2       1 <0>        -0.3583
     20 S2          7.0891    1.1909   -1.8921 S.3       1 <0>         0.0978
     21 C14        10.4273   -0.8040   -2.0505 C.3       1 <0>         0.1163
     22 C15        10.3557   -1.7953   -3.1834 C.2       1 <0>        -0.1891
     23 C16        11.1558   -1.6718   -4.2133 C.2       1 <0>        -0.1416
     24 N4          6.0690    2.1349    0.7402 N.pl3     1 <0>        -0.4682
     25 C17         6.6885    1.5403    1.9329 C.3       1 <0>         0.0608
     26 C18         8.0682    2.1652    2.1531 C.3       1 <0>         0.0624
     27 N5          7.9254    3.6197    2.3069 N.pl3     1 <0>        -0.4883
     28 C19         7.3059    4.2142    1.1142 C.3       1 <0>         0.0476
     29 C20         5.9262    3.5894    0.8940 C.3       1 <0>         0.0667
     30 C21         9.1576    4.2174    2.5816 C.ar      1 <0>         0.1080
     31 C22         9.6386    5.2296    1.7609 C.ar      1 <0>        -0.1664
     32 C23        10.8552    5.8217    2.0381 C.ar      1 <0>        -0.0927
     33 C24        11.5990    5.4007    3.1251 C.ar      1 <0>        -0.1431
     34 C25        11.1255    4.3896    3.9411 C.ar      1 <0>        -0.0956
     35 C26         9.9074    3.7969    3.6727 C.ar      1 <0>        -0.1392
     36 H1          0.5198    4.4200    0.7839 H         1 <0>         0.0747
     37 H2          1.9665    4.0478    1.7518 H         1 <0>         0.0808
     38 H3          2.1331    4.4876    0.0351 H         1 <0>         0.0819
     39 H4         -0.7189    2.5776    0.1874 H         1 <0>         0.1588
     40 H5         -0.8859    0.1795   -0.4397 H         1 <0>         0.1663
     41 H6          1.1157   -1.1801   -0.5937 H         1 <0>         0.1875
     42 H7          6.0489   -1.5162    0.5971 H         1 <0>         0.1532
     43 H8         11.1338   -0.0135   -2.3035 H         1 <0>         0.1134
     44 H9         10.7587   -1.3112   -1.1444 H         1 <0>         0.1094
     45 H10         9.6448   -2.6075   -3.1461 H         1 <0>         0.1125
     46 H11        11.8667   -0.8596   -4.2505 H         1 <0>         0.1072
     47 H12        11.1045   -2.3822   -5.0252 H         1 <0>         0.1059
     48 H13         6.0598    1.7312    2.8026 H         1 <0>         0.0707
     49 H14         6.7950    0.4651    1.7896 H         1 <0>         0.0933
     50 H15         8.7055    1.9511    1.2951 H         1 <0>         0.0530
     51 H16         8.5178    1.7467    3.0535 H         1 <0>         0.0969
     52 H17         7.9346    4.0234    0.2445 H         1 <0>         0.0602
     53 H18         7.1995    5.2896    1.2571 H         1 <0>         0.0972
     54 H19         5.4770    4.0079   -0.0065 H         1 <0>         0.0993
     55 H20         5.2889    3.8035    1.7520 H         1 <0>         0.0735
     56 H21         9.0602    5.5559    0.9092 H         1 <0>         0.1273
     57 H22        11.2279    6.6116    1.4028 H         1 <0>         0.1233
     58 H23        12.5521    5.8623    3.3371 H         1 <0>         0.1216
     59 H24        11.7092    4.0629    4.7891 H         1 <0>         0.1239
     60 H25         9.5383    3.0070    4.3102 H         1 <0>         0.1230
@<TRIPOS>BOND
     1    1    2 1
     2    1   36 1
     3    1   37 1
     4    1   38 1
     5    2    7 1
     6    2    3 2
     7    3    4 1
     8    3   39 1
     9    4    5 2
    10    4   40 1
    11    5    6 1
    12    5   41 1
    13    6   11 am
    14    6    7 1
    15    7    8 2
    16    8    9 1
    17    9   10 2
    18    9   24 1
    19   10   11 1
    20   10   13 1
    21   11   12 2
    22   13   14 2
    23   13   42 1
    24   14   20 1
    25   14   15 1
    26   15   16 2
    27   15   17 am
    28   17   18 1
    29   17   21 1
    30   18   19 2
    31   18   20 1
    32   21   22 1
    33   21   43 1
    34   21   44 1
    35   22   23 2
    36   22   45 1
    37   23   46 1
    38   23   47 1
    39   24   29 1
    40   24   25 1
    41   25   26 1
    42   25   48 1
    43   25   49 1
    44   26   27 1
    45   26   50 1
    46   26   51 1
    47   27   28 1
    48   27   30 1
    49   28   29 1
    50   28   52 1
    51   28   53 1
    52   29   54 1
    53   29   55 1
    54   30   35 ar
    55   30   31 ar
    56   31   32 ar
    57   31   56 1
    58   32   33 ar
    59   32   57 1
    60   33   34 ar
    61   33   58 1
    62   34   35 ar
    63   34   59 1
    64   35   60 1
@<TRIPOS>MOLECULE
ZINC21169321
   49    51     0     0     0
SMALL
USER_CHARGES
2-[4-(2,5-dichloro-3,6-dimethyl-phenyl)sulfonylpiperazin-1-yl]sulfonylbenzonitrile
@<TRIPOS>ATOM
      1 C1         -4.6417    6.5686    4.1748 C.3       1 <0>        -0.1211
      2 C2         -3.6613    5.4300    4.2903 C.ar      1 <0>        -0.0896
      3 C3         -3.9094    4.3906    5.1670 C.ar      1 <0>        -0.0398
      4 C4         -3.0096    3.3452    5.2727 C.ar      1 <0>        -0.0592
      5 C5         -1.8640    3.3372    4.4965 C.ar      1 <0>         0.0451
      6 C6         -1.6132    4.3791    3.6242 C.ar      1 <0>        -0.6687
      7 C7         -2.5133    5.4248    3.5185 C.ar      1 <0>         0.0544
      8 Cl1        -2.2014    6.7305    2.4178 Cl        1 <0>        -0.0191
      9 S1         -0.1509    4.3725    2.6413 S.o2      1 <0>         2.6825
     10 O1          0.7448    3.4538    3.2519 O.2       1 <0>        -0.9278
     11 O2          0.1912    5.7327    2.4132 O.2       1 <0>        -0.9258
     12 N1         -0.5540    3.7324    1.1682 N.pl3     1 <0>        -0.9885
     13 C8         -0.4517    2.2848    0.9314 C.3       1 <0>         0.0975
     14 C9          0.4376    2.0517   -0.2962 C.3       1 <0>         0.0876
     15 N2         -0.0257    2.9201   -1.3876 N.pl3     1 <0>        -0.9908
     16 C10        -0.1247    4.3667   -1.1483 C.3       1 <0>         0.1053
     17 C11        -1.0173    4.6008    0.0768 C.3       1 <0>         0.0960
     18 S2         -0.4294    2.2799   -2.8606 S.o2      1 <0>         2.6791
     19 O3         -0.2849    3.3260   -3.8114 O.2       1 <0>        -0.9404
     20 O4          0.2681    1.0470   -2.9725 O.2       1 <0>        -0.9384
     21 C12        -2.1455    1.8843   -2.8040 C.ar      1 <0>        -0.6412
     22 C13        -3.0366    2.5540   -3.6169 C.ar      1 <0>        -0.0191
     23 C14        -4.3837    2.2416   -3.5769 C.ar      1 <0>        -0.1073
     24 C15        -4.8483    1.2633   -2.7155 C.ar      1 <0>        -0.0640
     25 C16        -3.9692    0.5896   -1.8935 C.ar      1 <0>        -0.0864
     26 C17        -2.6074    0.8964   -1.9322 C.ar      1 <0>         0.0697
     27 C18        -1.6890    0.2014   -1.0813 C.1       1 <0>         0.2137
     28 N3         -0.9605   -0.3500   -0.4063 N.1       1 <0>        -0.3534
     29 C19        -0.8869    2.1953    4.6071 C.3       1 <0>        -0.2275
     30 Cl2        -3.3212    2.0398    6.3738 Cl        1 <0>        -0.0443
     31 H1         -5.4845    6.3977    4.8607 H         1 <0>         0.0777
     32 H2         -5.0156    6.6272    3.1419 H         1 <0>         0.0823
     33 H3         -4.1406    7.5120    4.4374 H         1 <0>         0.0836
     34 H4         -4.8055    4.3949    5.7698 H         1 <0>         0.1514
     35 H5         -0.0077    1.7995    1.8131 H         1 <0>         0.1127
     36 H6         -1.4548    1.8709    0.7513 H         1 <0>         0.0735
     37 H7          1.4808    2.2934   -0.0445 H         1 <0>         0.0943
     38 H8          0.3694    0.9977   -0.6036 H         1 <0>         0.1163
     39 H9          0.8790    4.7774   -0.9640 H         1 <0>         0.0930
     40 H10        -0.5644    4.8551   -2.0305 H         1 <0>         0.1122
     41 H11        -2.0613    4.3560   -0.1686 H         1 <0>         0.0813
     42 H12        -0.9517    5.6526    0.3921 H         1 <0>         0.1118
     43 H13        -2.6812    3.3212   -4.2888 H         1 <0>         0.1560
     44 H14        -5.0765    2.7666   -4.2179 H         1 <0>         0.1448
     45 H15        -5.9018    1.0269   -2.6866 H         1 <0>         0.1451
     46 H16        -4.3333   -0.1733   -1.2212 H         1 <0>         0.1445
     47 H17        -0.0460    2.3643    3.9184 H         1 <0>         0.1628
     48 H18        -1.3920    1.2539    4.3451 H         1 <0>         0.0847
     49 H19        -0.5095    2.1343    5.6385 H         1 <0>         0.0934
@<TRIPOS>BOND
     1    1    2 1
     2    1   31 1
     3    1   32 1
     4    1   33 1
     5    2    7 ar
     6    2    3 ar
     7    3    4 ar
     8    3   34 1
     9    4    5 ar
    10    4   30 1
    11    5    6 ar
    12    5   29 1
    13    6    7 ar
    14    6    9 1
    15    7    8 1
    16    9   10 2
    17    9   11 2
    18    9   12 1
    19   12   17 1
    20   12   13 1
    21   13   14 1
    22   13   35 1
    23   13   36 1
    24   14   15 1
    25   14   37 1
    26   14   38 1
    27   15   16 1
    28   15   18 1
    29   16   17 1
    30   16   39 1
    31   16   40 1
    32   17   41 1
    33   17   42 1
    34   18   19 2
    35   18   20 2
    36   18   21 1
    37   21   26 ar
    38   21   22 ar
    39   22   23 ar
    40   22   43 1
    41   23   24 ar
    42   23   44 1
    43   24   25 ar
    44   24   45 1
    45   25   26 ar
    46   25   46 1
    47   26   27 1
    48   27   28 3
    49   29   47 1
    50   29   48 1
    51   29   49 1
@<TRIPOS>MOLECULE
ZINC34810999
   59    63     0     0     0
SMALL
USER_CHARGES

@<TRIPOS>ATOM
      1 C1          0.2282    1.1886   -0.1275 C.ar      1 <0>        -0.1279
      2 C2          1.4595    1.8160   -0.1733 C.ar      1 <0>        -0.0838
      3 C3          2.6186    1.0640   -0.1864 C.ar      1 <0>        -0.1548
      4 C4          2.5468   -0.3186   -0.1536 C.ar      1 <0>         0.1065
      5 C5          1.3135   -0.9456   -0.1077 C.ar      1 <0>        -0.1481
      6 C6          0.1553   -0.1913   -0.0946 C.ar      1 <0>        -0.0681
      7 C7          1.2336   -2.4501   -0.0724 C.3       1 <0>         0.1537
      8 N1          1.4825   -2.9205    1.2925 N.am      1 <0>        -0.6115
      9 C8          2.8499   -3.2149    1.7039 C.3       1 <0>         0.0894
     10 C9          3.1400   -2.7832    3.1402 C.3       1 <0>         0.1067
     11 N2          2.0578   -3.2517    4.0142 N.pl3     1 <0>        -0.2709
     12 C10         0.7697   -3.3897    3.5389 C.2       1 <0>        -0.0479
     13 C11         0.0052   -3.8339    4.5624 C.2       1 <0>        -0.0783
     14 C12         0.8889   -3.9526    5.6593 C.2       1 <0>        -0.0253
     15 N3          2.0909   -3.5856    5.2450 N.2       1 <0>        -0.2214
     16 C13         0.5347   -4.4035    7.0211 C.2       1 <0>         0.6086
     17 O1         -0.6214   -4.6609    7.2946 O.2       1 <0>        -0.5227
     18 N4          1.4935   -4.5294    7.9599 N.am      1 <0>        -0.6003
     19 C14         2.8680   -4.0850    7.6896 C.3       1 <0>         0.0629
     20 C15         3.2844   -3.0896    8.7796 C.3       1 <0>         0.1090
     21 N5          2.9740   -3.6733   10.0921 N.pl3     1 <0>        -0.6270
     22 C16         1.5994   -4.1177   10.3624 C.3       1 <0>         0.1052
     23 C17         1.1817   -5.1080    9.2744 C.3       1 <0>         0.0966
     24 C18         3.9675   -3.8038   11.0651 C.ar      1 <0>         0.2216
     25 C19         5.2255   -3.2533   10.8537 C.ar      1 <0>        -0.1692
     26 C20         6.2053   -3.3837   11.8179 C.ar      1 <0>        -0.0686
     27 C21         5.9357   -4.0618   12.9928 C.ar      1 <0>        -0.1337
     28 C22         4.6850   -4.6112   13.2061 C.ar      1 <0>        -0.1302
     29 C23         3.6984   -4.4791   12.2485 C.ar      1 <0>        -0.1534
     30 C24         4.3961   -5.3501   14.4874 C.3       1 <0>         0.5067
     31 F1          5.5382   -5.3465   15.2955 F         1 <0>        -0.1760
     32 F2          3.3453   -4.7197   15.1625 F         1 <0>        -0.1765
     33 F3          4.0367   -6.6699   14.1939 F         1 <0>        -0.1765
     34 C25         0.4361   -3.0655    2.1421 C.2       1 <0>         0.6017
     35 O2         -0.7150   -2.9386    1.7705 O.2       1 <0>        -0.4965
     36 F4          3.6795   -1.0548   -0.1668 F         1 <0>        -0.1380
     37 H1         -0.6771    1.7773   -0.1128 H         1 <0>         0.1331
     38 H2          1.5153    2.8942   -0.1993 H         1 <0>         0.1351
     39 H3          3.5803    1.5543   -0.2226 H         1 <0>         0.1375
     40 H4         -0.8070   -0.6803   -0.0584 H         1 <0>         0.1384
     41 H5          0.2412   -2.7689   -0.3912 H         1 <0>         0.1075
     42 H6          1.9831   -2.8696   -0.7436 H         1 <0>         0.0969
     43 H7          3.0198   -4.2881    1.6180 H         1 <0>         0.0840
     44 H8          3.5376   -2.6972    1.0353 H         1 <0>         0.1238
     45 H9          4.0852   -3.2169    3.4668 H         1 <0>         0.1283
     46 H10         3.2017   -1.6960    3.1881 H         1 <0>         0.1049
     47 H11        -1.0527   -4.0506    4.5454 H         1 <0>         0.1779
     48 H12         3.5393   -4.9436    7.7025 H         1 <0>         0.0716
     49 H13         2.9103   -3.5990    6.7149 H         1 <0>         0.1446
     50 H14         4.3549   -2.8965    8.7090 H         1 <0>         0.0957
     51 H15         2.7331   -2.1577    8.6540 H         1 <0>         0.0689
     52 H16         1.5571   -4.6037   11.3371 H         1 <0>         0.0971
     53 H17         0.9281   -3.2591   10.3495 H         1 <0>         0.0732
     54 H18         0.1107   -5.2975    9.3460 H         1 <0>         0.1075
     55 H19         1.7302   -6.0412    9.4027 H         1 <0>         0.0763
     56 H20         5.4369   -2.7243    9.9362 H         1 <0>         0.1317
     57 H21         7.1835   -2.9560   11.6542 H         1 <0>         0.1346
     58 H22         6.7040   -4.1627   13.7451 H         1 <0>         0.1353
     59 H23         2.7202   -4.9044   12.4178 H         1 <0>         0.1336
@<TRIPOS>BOND
     1    1    6 ar
     2    1    2 ar
     3    1   37 1
     4    2    3 ar
     5    2   38 1
     6    3    4 ar
     7    3   39 1
     8    4    5 ar
     9    4   36 1
    10    5    6 ar
    11    5    7 1
    12    6   40 1
    13    7    8 1
    14    7   41 1
    15    7   42 1
    16    8   34 am
    17    8    9 1
    18    9   10 1
    19    9   43 1
    20    9   44 1
    21   10   11 1
    22   10   45 1
    23   10   46 1
    24   11   15 1
    25   11   12 1
    26   12   13 2
    27   12   34 1
    28   13   14 1
    29   13   47 1
    30   14   15 2
    31   14   16 1
    32   16   17 2
    33   16   18 am
    34   18   23 1
    35   18   19 1
    36   19   20 1
    37   19   48 1
    38   19   49 1
    39   20   21 1
    40   20   50 1
    41   20   51 1
    42   21   22 1
    43   21   24 1
    44   22   23 1
    45   22   52 1
    46   22   53 1
    47   23   54 1
    48   23   55 1
    49   24   29 ar
    50   24   25 ar
    51   25   26 ar
    52   25   56 1
    53   26   27 ar
    54   26   57 1
    55   27   28 ar
    56   27   58 1
    57   28   29 ar
    58   28   30 1
    59   29   59 1
    60   30   31 1
    61   30   32 1
    62   30   33 1
    63   34   35 2
@<TRIPOS>MOLECULE
ZINC38648718
   53    57     0     0     0
SMALL
USER_CHARGES

@<TRIPOS>ATOM
      1 C1         -0.0157    1.3058    0.0092 C.2       1 <0>        -0.1649
      2 C2          0.0021   -0.0041    0.0020 C.2       1 <0>        -0.1622
      3 C3          1.3172   -0.7397   -0.0145 C.3       1 <0>         0.0864
      4 O1          1.2769   -1.8088    0.9329 O.3       1 <0>        -0.3089
      5 C4          2.3924   -2.5770    1.0440 C.ar      1 <0>         0.1458
      6 C5          3.5050   -2.3039    0.2615 C.ar      1 <0>        -0.2064
      7 C6          4.6378   -3.0861    0.3767 C.ar      1 <0>        -0.0440
      8 C7          4.6633   -4.1406    1.2706 C.ar      1 <0>        -0.1470
      9 C8          3.5557   -4.4151    2.0513 C.ar      1 <0>        -0.0611
     10 C9          2.4225   -3.6322    1.9443 C.ar      1 <0>        -0.1506
     11 C10         5.9003   -4.9925    1.3939 C.3       1 <0>         0.2342
     12 H1          6.7630   -4.4627    0.9898 H         1 <0>         0.1273
     13 C11         5.7079   -6.2873    0.6750 C.2       1 <0>        -0.2402
     14 C12         5.4320   -6.5776   -0.7359 C.2       1 <0>         0.4589
     15 O2          5.4861   -5.7342   -1.6135 O.2       1 <0>        -0.4251
     16 C13         5.0800   -7.9969   -0.9930 C.ar      1 <0>        -0.2019
     17 C14         4.5991   -8.3897   -2.2419 C.ar      1 <0>        -0.0214
     18 C15         4.2725   -9.7104   -2.4611 C.ar      1 <0>        -0.0622
     19 C16         4.4220  -10.6424   -1.4419 C.ar      1 <0>        -0.0444
     20 C17         4.8967  -10.2658   -0.2062 C.ar      1 <0>        -0.1199
     21 C18         5.2373   -8.9358    0.0396 C.ar      1 <0>         0.1469
     22 O3          5.7115   -8.5950    1.2598 O.3       1 <0>        -0.1771
     23 C19         5.8269   -7.2938    1.5907 C.2       1 <0>         0.0884
     24 C20         6.0891   -6.6906    2.9091 C.2       1 <0>         0.5697
     25 O4          6.2425   -7.3130    3.9412 O.2       1 <0>        -0.4740
     26 N1          6.1356   -5.3452    2.8036 N.am      1 <0>        -0.5870
     27 C21         6.3778   -4.4020    3.8980 C.3       1 <0>         0.1778
     28 H2          6.3457   -3.3834    3.5115 H         1 <0>         0.1277
     29 C22         5.2904   -4.5753    4.9714 C.3       1 <0>        -0.1554
     30 C23         5.7387   -3.8019    6.2443 C.3       1 <0>        -0.5683
     31 S1          7.5334   -4.2179    6.2769 S.o2      1 <0>         2.3765
     32 O5          7.7258   -5.3725    7.0826 O.2       1 <0>        -0.9204
     33 O6          8.2762   -3.0390    6.5557 O.2       1 <0>        -0.9303
     34 C24         7.7720   -4.6747    4.5123 C.3       1 <0>        -0.6090
     35 Cl1         3.6733  -10.2097   -4.0120 Cl        1 <0>        -0.0456
     36 H3          0.9122    1.8585    0.0033 H         1 <0>         0.1005
     37 H4         -0.9582    1.8330    0.0166 H         1 <0>         0.1101
     38 H5         -0.9258   -0.5567    0.0079 H         1 <0>         0.1210
     39 H6          1.4950   -1.1439   -1.0111 H         1 <0>         0.0745
     40 H7          2.1214   -0.0522    0.2475 H         1 <0>         0.0700
     41 H8          3.4853   -1.4808   -0.4373 H         1 <0>         0.1333
     42 H9          5.5042   -2.8738   -0.2322 H         1 <0>         0.1331
     43 H10         3.5779   -5.2396    2.7485 H         1 <0>         0.1251
     44 H11         1.5592   -3.8443    2.5574 H         1 <0>         0.1350
     45 H12         4.4830   -7.6630   -3.0324 H         1 <0>         0.1565
     46 H13         4.1620  -11.6752   -1.6213 H         1 <0>         0.1559
     47 H14         5.0064  -11.0027    0.5756 H         1 <0>         0.1591
     48 H15         4.3463   -4.1699    4.6077 H         1 <0>         0.1109
     49 H16         5.1704   -5.6329    5.2064 H         1 <0>         0.1059
     50 H17         5.5848   -2.7291    6.1283 H         1 <0>         0.1446
     51 H18         5.2309   -4.1771    7.1328 H         1 <0>         0.1492
     52 H19         8.0367   -5.7279    4.4179 H         1 <0>         0.1514
     53 H20         8.5290   -4.0419    4.0490 H         1 <0>         0.1518
@<TRIPOS>BOND
     1    1    2 2
     2    1   36 1
     3    1   37 1
     4    2    3 1
     5    2   38 1
     6    3    4 1
     7    3   39 1
     8    3   40 1
     9    4    5 1
    10    5   10 ar
    11    5    6 ar
    12    6    7 ar
    13    6   41 1
    14    7    8 ar
    15    7   42 1
    16    8    9 ar
    17    8   11 1
    18    9   10 ar
    19    9   43 1
    20   10   44 1
    21   11   12 1
    22   11   26 1
    23   11   13 1
    24   13   23 2
    25   13   14 1
    26   14   15 2
    27   14   16 1
    28   16   21 ar
    29   16   17 ar
    30   17   18 ar
    31   17   45 1
    32   18   19 ar
    33   18   35 1
    34   19   20 ar
    35   19   46 1
    36   20   21 ar
    37   20   47 1
    38   21   22 1
    39   22   23 1
    40   23   24 1
    41   24   25 2
    42   24   26 am
    43   26   27 1
    44   27   28 1
    45   27   34 1
    46   27   29 1
    47   29   30 1
    48   29   48 1
    49   29   49 1
    50   30   31 1
    51   30   50 1
    52   30   51 1
    53   31   32 2
    54   31   33 2
    55   31   34 1
    56   34   52 1
    57   34   53 1
@<TRIPOS>MOLECULE
ZINC41027038
   51    55     0     0     0
SMALL
USER_CHARGES

@<TRIPOS>ATOM
      1 C1         -0.0243    1.4889   -0.1156 C.3       1 <0>        -0.1111
      2 C2         -0.0047   -0.0170   -0.0601 C.2       1 <0>         0.1641
      3 C3         -1.1710   -0.6722    0.1051 C.2       1 <0>        -0.1213
      4 C4         -1.1752   -2.0951    0.1599 C.2       1 <0>         0.4097
      5 O1         -2.2106   -2.7223    0.3091 O.2       1 <0>        -0.4443
      6 C5          0.1233   -2.7778    0.0283 C.ar      1 <0>        -0.2462
      7 C6          0.2217   -4.1694    0.0677 C.ar      1 <0>         0.0078
      8 C7          1.4430   -4.7643   -0.0580 C.ar      1 <0>        -0.1658
      9 C8          2.5950   -3.9931   -0.2261 C.ar      1 <0>         0.2036
     10 C9          2.5126   -2.6134   -0.2690 C.ar      1 <0>        -0.1877
     11 C10         1.2763   -1.9919   -0.1408 C.ar      1 <0>         0.1823
     12 O2          1.1704   -0.6483   -0.1824 O.3       1 <0>        -0.2045
     13 C11         3.7477   -1.7702   -0.4576 C.3       1 <0>         0.0957
     14 N1          4.9429   -2.5720   -0.1599 N.3       1 <0>        -0.5459
     15 C12         4.8809   -3.8579   -0.8740 C.3       1 <0>         0.2181
     16 O3          3.7945   -4.6209   -0.3445 O.3       1 <0>        -0.2890
     17 C13         6.1681   -1.8378   -0.5029 C.3       1 <0>         0.0903
     18 H1          6.1559   -1.5893   -1.5641 H         1 <0>         0.0773
     19 C14         6.2358   -0.5430    0.3238 C.3       1 <0>        -0.1298
     20 C15         7.6671    0.0488    0.1807 C.3       1 <0>        -0.5727
     21 S1          8.6784   -1.4885    0.2747 S.o2      1 <0>         2.3786
     22 O4          9.6772   -1.4472   -0.7353 O.2       1 <0>        -0.9329
     23 O5          9.0589   -1.7097    1.6258 O.2       1 <0>        -0.9262
     24 C16         7.4003   -2.7229   -0.1966 C.3       1 <0>        -0.5943
     25 O6         -2.3366    0.0215    0.2191 O.3       1 <0>        -0.2080
     26 C17        -2.9870   -0.0157    1.4116 C.ar      1 <0>         0.1490
     27 C18        -2.4049   -0.6472    2.5014 C.ar      1 <0>        -0.1815
     28 C19        -3.0682   -0.6837    3.7125 C.ar      1 <0>        -0.0649
     29 C20        -4.3115   -0.0918    3.8399 C.ar      1 <0>        -0.1448
     30 C21        -4.8944    0.5382    2.7561 C.ar      1 <0>        -0.0548
     31 C22        -4.2327    0.5828    1.5433 C.ar      1 <0>        -0.1178
     32 Br1        -5.0268    1.4514    0.0631 Br        1 <0>        -0.0338
     33 H2          0.9979    1.8638   -0.1678 H         1 <0>         0.0916
     34 H3         -0.5756    1.8128   -0.9984 H         1 <0>         0.1085
     35 H4         -0.5093    1.8792    0.7791 H         1 <0>         0.1035
     36 H5         -0.6648   -4.7725    0.1975 H         1 <0>         0.1537
     37 H6          1.5196   -5.8411   -0.0269 H         1 <0>         0.1498
     38 H7          3.7936   -1.4194   -1.4885 H         1 <0>         0.0642
     39 H8          3.7085   -0.9136    0.2153 H         1 <0>         0.1087
     40 H9          4.7186   -3.6789   -1.9369 H         1 <0>         0.0542
     41 H10         5.8146   -4.4018   -0.7301 H         1 <0>         0.1343
     42 H11         5.5028    0.1716   -0.0507 H         1 <0>         0.1028
     43 H12         6.0318   -0.7641    1.3715 H         1 <0>         0.1040
     44 H13         7.7938    0.5458   -0.7811 H         1 <0>         0.1414
     45 H14         7.8986    0.7240    1.0045 H         1 <0>         0.1471
     46 H15         7.1931   -3.4005    0.6317 H         1 <0>         0.1556
     47 H16         7.7079   -3.2773   -1.0832 H         1 <0>         0.1451
     48 H17        -1.4342   -1.1100    2.4028 H         1 <0>         0.1254
     49 H18        -2.6155   -1.1755    4.5609 H         1 <0>         0.1331
     50 H19        -4.8283   -0.1220    4.7878 H         1 <0>         0.1362
     51 H20        -5.8656    0.9994    2.8582 H         1 <0>         0.1419
@<TRIPOS>BOND
     1    1    2 1
     2    1   33 1
     3    1   34 1
     4    1   35 1
     5    2   12 1
     6    2    3 2
     7    3    4 1
     8    3   25 1
     9    4    5 2
    10    4    6 1
    11    6   11 ar
    12    6    7 ar
    13    7    8 ar
    14    7   36 1
    15    8    9 ar
    16    8   37 1
    17    9   16 1
    18    9   10 ar
    19   10   11 ar
    20   10   13 1
    21   11   12 1
    22   13   14 1
    23   13   38 1
    24   13   39 1
    25   14   15 1
    26   14   17 1
    27   15   16 1
    28   15   40 1
    29   15   41 1
    30   17   18 1
    31   17   24 1
    32   17   19 1
    33   19   20 1
    34   19   42 1
    35   19   43 1
    36   20   21 1
    37   20   44 1
    38   20   45 1
    39   21   22 2
    40   21   23 2
    41   21   24 1
    42   24   46 1
    43   24   47 1
    44   25   26 1
    45   26   31 ar
    46   26   27 ar
    47   27   28 ar
    48   27   48 1
    49   28   29 ar
    50   28   49 1
    51   29   30 ar
    52   29   50 1
    53   30   31 ar
    54   30   51 1
    55   31   32 1
@<TRIPOS>MOLECULE
ZINC03216900
   63    66     0     0     0
SMALL
USER_CHARGES
4-(3-dimorpholinophosphoryl-2,5-dimethyl-pyrrol-1-yl)-N,N-dimethyl-aniline
@<TRIPOS>ATOM
      1 C1          0.0718   -3.4858   -0.5261 C.3       1 <0>        -0.0854
      2 C2          0.2139   -2.1052    0.0612 C.2       1 <0>         0.0255
      3 C3          0.2929   -0.9534   -0.6362 C.2       1 <0>        -0.1623
      4 C4          0.4163    0.0970    0.2950 C.2       1 <0>        -0.8044
      5 C5          0.4135   -0.4520    1.5270 C.2       1 <0>         0.1212
      6 N1          0.2841   -1.8043    1.3910 N.pl3     1 <0>        -0.3817
      7 C6          0.2361   -2.7318    2.4436 C.ar      1 <0>         0.0378
      8 C7         -0.8252   -2.7118    3.3383 C.ar      1 <0>        -0.0554
      9 C8         -0.8752   -3.6269    4.3707 C.ar      1 <0>        -0.1864
     10 C9          0.1422   -4.5605    4.5209 C.ar      1 <0>         0.2293
     11 C10         1.2066   -4.5768    3.6286 C.ar      1 <0>        -0.1861
     12 C11         1.2529   -3.6650    2.5930 C.ar      1 <0>        -0.0534
     13 N2          0.0951   -5.4836    5.5702 N.pl3     1 <0>        -0.6330
     14 C12         1.1685   -6.4679    5.7286 C.3       1 <0>         0.0884
     15 C13        -1.0276   -5.4663    6.5112 C.3       1 <0>         0.0886
     16 C14         0.5297    0.2981    2.8289 C.3       1 <0>        -0.1230
     17 P1          0.5603    1.8633   -0.0925 P.3       1 <0>         2.5586
     18 O1          1.7186    2.4341    0.6306 O.2       1 <0>        -1.0344
     19 N3          0.7820    2.0578   -1.7494 N.pl3     1 <0>        -0.9162
     20 C15        -0.4138    1.6371   -2.4940 C.3       1 <0>        -0.0034
     21 C16        -0.1918    1.8861   -3.9882 C.3       1 <0>         0.0658
     22 O2          0.9831    1.1902   -4.4130 O.3       1 <0>        -0.3818
     23 C17         2.1668    1.5758   -3.7090 C.3       1 <0>         0.0649
     24 C18         1.9687    1.3236   -2.2120 C.3       1 <0>         0.0103
     25 N4         -0.8450    2.6582    0.3826 N.pl3     1 <0>        -0.9411
     26 C19        -0.7150    4.1114    0.2017 C.3       1 <0>         0.0168
     27 C20        -2.0327    4.7882    0.5884 C.3       1 <0>         0.0651
     28 O3         -2.3657    4.4378    1.9344 O.3       1 <0>        -0.3788
     29 C21        -2.5007    3.0299    2.1462 C.3       1 <0>         0.0664
     30 C22        -1.1878    2.3353    1.7753 C.3       1 <0>         0.0076
     31 H1          1.0606   -3.9096   -0.7013 H         1 <0>         0.0721
     32 H2         -0.4780   -4.1212    0.1683 H         1 <0>         0.0657
     33 H3         -0.4700   -3.4252   -1.4699 H         1 <0>         0.0804
     34 H4          0.2667   -0.8544   -1.7113 H         1 <0>         0.1417
     35 H5         -1.6138   -1.9827    3.2243 H         1 <0>         0.1263
     36 H6         -1.7028   -3.6137    5.0645 H         1 <0>         0.1336
     37 H7          1.9977   -5.3028    3.7448 H         1 <0>         0.1334
     38 H8          2.0805   -3.6776    1.8992 H         1 <0>         0.1274
     39 H9          1.9483   -6.0552    6.3687 H         1 <0>         0.0533
     40 H10         0.7668   -7.3735    6.1832 H         1 <0>         0.0711
     41 H11         1.5890   -6.7073    4.7519 H         1 <0>         0.0705
     42 H12        -1.8197   -6.1188    6.1438 H         1 <0>         0.0526
     43 H13        -0.6901   -5.8180    7.4861 H         1 <0>         0.0714
     44 H14        -1.4085   -4.4492    6.6038 H         1 <0>         0.0708
     45 H15        -0.4648    0.4613    3.2442 H         1 <0>         0.0806
     46 H16         1.1258   -0.2840    3.5317 H         1 <0>         0.0790
     47 H17         1.0121    1.2595    2.6525 H         1 <0>         0.1032
     48 H18        -0.5932    0.5754   -2.3247 H         1 <0>         0.0640
     49 H19        -1.2754    2.2113   -2.1534 H         1 <0>         0.1037
     50 H20        -0.0658    2.9544   -4.1644 H         1 <0>         0.0649
     51 H21        -1.0527    1.5236   -4.5501 H         1 <0>         0.1007
     52 H22         2.3614    2.6350   -3.8771 H         1 <0>         0.0665
     53 H23         3.0117    0.9883   -4.0684 H         1 <0>         0.1032
     54 H24         2.8463    1.6690   -1.6655 H         1 <0>         0.1099
     55 H25         1.8278    0.2570   -2.0374 H         1 <0>         0.0653
     56 H26         0.0872    4.4870    0.8369 H         1 <0>         0.0780
     57 H27        -0.4864    4.3293   -0.8415 H         1 <0>         0.0979
     58 H28        -2.8244    4.4529   -0.0815 H         1 <0>         0.0600
     59 H29        -1.9236    5.8700    0.5103 H         1 <0>         0.1035
     60 H30        -3.3061    2.6435    1.5216 H         1 <0>         0.0603
     61 H31        -2.7294    2.8399    3.1949 H         1 <0>         0.1005
     62 H32        -1.3043    1.2566    1.8807 H         1 <0>         0.0951
     63 H33        -0.3928    2.6817    2.4356 H         1 <0>         0.0738
@<TRIPOS>BOND
     1    1    2 1
     2    1   31 1
     3    1   32 1
     4    1   33 1
     5    2    6 1
     6    2    3 2
     7    3    4 1
     8    3   34 1
     9    4    5 2
    10    4   17 1
    11    5    6 1
    12    5   16 1
    13    6    7 1
    14    7   12 ar
    15    7    8 ar
    16    8    9 ar
    17    8   35 1
    18    9   10 ar
    19    9   36 1
    20   10   11 ar
    21   10   13 1
    22   11   12 ar
    23   11   37 1
    24   12   38 1
    25   13   14 1
    26   13   15 1
    27   14   39 1
    28   14   40 1
    29   14   41 1
    30   15   42 1
    31   15   43 1
    32   15   44 1
    33   16   45 1
    34   16   46 1
    35   16   47 1
    36   17   18 2
    37   17   19 1
    38   17   25 1
    39   19   24 1
    40   19   20 1
    41   20   21 1
    42   20   48 1
    43   20   49 1
    44   21   22 1
    45   21   50 1
    46   21   51 1
    47   22   23 1
    48   23   24 1
    49   23   52 1
    50   23   53 1
    51   24   54 1
    52   24   55 1
    53   25   30 1
    54   25   26 1
    55   26   27 1
    56   26   56 1
    57   26   57 1
    58   27   28 1
    59   27   58 1
    60   27   59 1
    61   28   29 1
    62   29   30 1
    63   29   60 1
    64   29   61 1
    65   30   62 1
    66   30   63 1
@<TRIPOS>MOLECULE
ZINC09348543
   47    49     0     0     0
SMALL
USER_CHARGES
3-[5-[(2-chlorophenyl)methylene]-2,4-dioxo-thiazolidin-3-yl]-N-(1,1-dioxothiolan-3-yl)-N-methyl-propanamide
@<TRIPOS>ATOM
      1 C1          7.0934    1.1769    3.2633 C.3       1 <0>         0.0617
      2 N1          7.6091    0.4477    2.1020 N.am      1 <0>        -0.6058
      3 C2          8.9188   -0.2052    2.1696 C.3       1 <0>         0.1390
      4 H1          9.1279   -0.6959    1.2190 H         1 <0>         0.1265
      5 C3         10.0019    0.8506    2.4468 C.3       1 <0>        -0.1432
      6 C4         11.3163    0.1088    2.8230 C.3       1 <0>        -0.5709
      7 S1         10.6504   -1.2358    3.8923 S.o2      1 <0>         2.3745
      8 O1         10.6732   -0.8040    5.2460 O.2       1 <0>        -0.9299
      9 O2         11.2762   -2.4616    3.5388 O.2       1 <0>        -0.9305
     10 C5          8.9089   -1.2608    3.3015 C.3       1 <0>        -0.5999
     11 C6          6.8787    0.3776    0.9715 C.2       1 <0>         0.5279
     12 O3          7.3057   -0.2261    0.0102 O.2       1 <0>        -0.5281
     13 C7          5.5315    1.0492    0.9020 C.3       1 <0>        -0.1562
     14 C8          4.9174    0.8187   -0.4802 C.3       1 <0>         0.1074
     15 N2          3.6076    1.4716   -0.5478 N.am      1 <0>        -0.5783
     16 C9          2.5294    0.7956   -0.1882 C.2       1 <0>         0.5576
     17 O4          2.5961   -0.3563    0.1983 O.2       1 <0>        -0.4605
     18 C10         1.2388    1.5092   -0.2842 C.2       1 <0>        -0.2069
     19 C11        -0.0126    1.0758    0.0080 C.2       1 <0>         0.0716
     20 C12        -1.1752    1.9137   -0.3178 C.ar      1 <0>        -0.0876
     21 C13        -1.0549    2.9538   -1.2465 C.ar      1 <0>        -0.0800
     22 C14        -2.1501    3.7347   -1.5469 C.ar      1 <0>        -0.1116
     23 C15        -3.3676    3.4932   -0.9331 C.ar      1 <0>        -0.0797
     24 C16        -3.4964    2.4674   -0.0138 C.ar      1 <0>        -0.1118
     25 C17        -2.4110    1.6721    0.2948 C.ar      1 <0>        -0.0034
     26 Cl1        -2.5761    0.3807    1.4432 Cl        1 <0>        -0.0503
     27 S2          1.7817    3.1033   -0.8841 S.3       1 <0>        -0.0397
     28 C18         3.5299    2.7502   -0.9691 C.2       1 <0>         0.5372
     29 O5          4.4326    3.4855   -1.3212 O.2       1 <0>        -0.4114
     30 H2          6.5190    0.4976    3.8931 H         1 <0>         0.0667
     31 H3          7.9265    1.5856    3.8351 H         1 <0>         0.0819
     32 H4          6.4509    1.9901    2.9257 H         1 <0>         0.0807
     33 H5         10.1631    1.4557    1.5546 H         1 <0>         0.1069
     34 H6          9.6903    1.4895    3.2732 H         1 <0>         0.0940
     35 H7         11.9900    0.7591    3.3810 H         1 <0>         0.1467
     36 H8         11.8074   -0.2975    1.9387 H         1 <0>         0.1441
     37 H9          8.2261   -0.9665    4.0985 H         1 <0>         0.1441
     38 H10         8.6443   -2.2435    2.9112 H         1 <0>         0.1482
     39 H11         5.6496    2.1192    1.0732 H         1 <0>         0.1040
     40 H12         4.8763    0.6293    1.6653 H         1 <0>         0.1058
     41 H13         4.7992   -0.2513   -0.6514 H         1 <0>         0.1130
     42 H14         5.5725    1.2386   -1.2435 H         1 <0>         0.1096
     43 H15        -0.1550    0.1130    0.4760 H         1 <0>         0.1663
     44 H16        -0.1062    3.1443   -1.7262 H         1 <0>         0.1455
     45 H17        -2.0585    4.5374   -2.2636 H         1 <0>         0.1401
     46 H18        -4.2216    4.1089   -1.1736 H         1 <0>         0.1411
     47 H19        -4.4494    2.2858    0.4607 H         1 <0>         0.1433
@<TRIPOS>BOND
     1    1    2 1
     2    1   30 1
     3    1   31 1
     4    1   32 1
     5    2    3 1
     6    2   11 am
     7    3    4 1
     8    3   10 1
     9    3    5 1
    10    5    6 1
    11    5   33 1
    12    5   34 1
    13    6    7 1
    14    6   35 1
    15    6   36 1
    16    7    8 2
    17    7    9 2
    18    7   10 1
    19   10   37 1
    20   10   38 1
    21   11   12 2
    22   11   13 1
    23   13   14 1
    24   13   39 1
    25   13   40 1
    26   14   15 1
    27   14   41 1
    28   14   42 1
    29   15   28 am
    30   15   16 am
    31   16   17 2
    32   16   18 1
    33   18   19 2
    34   18   27 1
    35   19   20 1
    36   19   43 1
    37   20   25 ar
    38   20   21 ar
    39   21   22 ar
    40   21   44 1
    41   22   23 ar
    42   22   45 1
    43   23   24 ar
    44   23   46 1
    45   24   25 ar
    46   24   47 1
    47   25   26 1
    48   27   28 1
    49   28   29 2
@<TRIPOS>MOLECULE
ZINC14898251
   57    61     0     0     0
SMALL
USER_CHARGES
4-[[4-(6-cyclopropyl-1,3-dimethyl-pyrazolo[5,4-b]pyridine-4-carbonyl)piperazin-1-yl]methyl]benzonitrile
@<TRIPOS>ATOM
      1 C1          0.5300   -5.7020   -7.3979 C.3       1 <0>        -0.0979
      2 C2         -0.8500   -5.1186   -7.5591 C.2       1 <0>         0.1180
      3 C3         -1.6603   -4.6198   -6.5170 C.ar      1 <0>        -0.1945
      4 C4         -1.4950   -4.5002   -5.1191 C.ar      1 <0>         0.0071
      5 C5         -2.5418   -3.9465   -4.3857 C.ar      1 <0>        -0.1941
      6 C6         -3.6874   -3.5273   -5.0458 C.ar      1 <0>         0.2117
      7 N1         -3.8174   -3.6497   -6.3480 N.ar      1 <0>        -0.4925
      8 C7         -2.8617   -4.1731   -7.1027 C.ar      1 <0>         0.3236
      9 N2         -2.7460   -4.4088   -8.4480 N.pl3     1 <0>        -0.3885
     10 N3         -1.4946   -4.9904   -8.6837 N.2       1 <0>        -0.2380
     11 C8         -3.7572   -4.1052   -9.4636 C.3       1 <0>         0.1098
     12 C9         -4.8147   -2.9232   -4.2487 C.3       1 <0>        -0.2035
     13 C10        -4.8030   -3.1376   -2.7339 C.3       1 <0>        -0.1166
     14 C11        -5.8179   -3.8823   -3.6049 C.3       1 <0>        -0.1084
     15 C12        -0.2538   -4.9535   -4.4554 C.2       1 <0>         0.5627
     16 O1          0.1394   -6.0925   -4.6146 O.2       1 <0>        -0.5116
     17 N4          0.4416   -4.1036   -3.6739 N.am      1 <0>        -0.6028
     18 C13         1.6103   -4.5655   -2.9096 C.3       1 <0>         0.1137
     19 C14         1.4391   -4.1327   -1.4496 C.3       1 <0>         0.0410
     20 N5          1.1948   -2.6851   -1.3967 N.3       1 <0>        -0.5302
     21 C15        -0.0582   -2.3309   -2.0767 C.3       1 <0>         0.0348
     22 C16         0.0516   -2.6899   -3.5624 C.3       1 <0>         0.1001
     23 C17         1.1960   -2.2013   -0.0097 C.3       1 <0>         0.0871
     24 C18         1.1895   -0.6944   -0.0033 C.ar      1 <0>        -0.0506
     25 C19        -0.0135   -0.0109    0.0025 C.ar      1 <0>        -0.1172
     26 C20        -0.0267    1.3685    0.0093 C.ar      1 <0>        -0.0693
     27 C21         1.1777    2.0750    0.0099 C.ar      1 <0>        -0.0264
     28 C22         2.3881    1.3789    0.0036 C.ar      1 <0>        -0.0689
     29 C23         2.3867   -0.0006   -0.0027 C.ar      1 <0>        -0.0968
     30 C24         1.1715    3.5070    0.0165 C.1       1 <0>         0.2489
     31 N6          1.1666    4.6429    0.0217 N.1       1 <0>        -0.4115
     32 H1          0.8151   -5.6810   -6.3357 H         1 <0>         0.1004
     33 H2          1.2492   -5.1094   -7.9824 H         1 <0>         0.0792
     34 H3          0.5330   -6.7414   -7.7579 H         1 <0>         0.0850
     35 H4         -2.4602   -3.8401   -3.3141 H         1 <0>         0.1463
     36 H5         -3.3838   -4.4050  -10.4539 H         1 <0>         0.0980
     37 H6         -3.9658   -3.0252   -9.4619 H         1 <0>         0.0802
     38 H7         -4.6813   -4.6575   -9.2375 H         1 <0>         0.0802
     39 H8         -4.8813   -2.0515   -4.9163 H         1 <0>         0.1420
     40 H9         -3.8231   -3.5320   -2.4270 H         1 <0>         0.1032
     41 H10        -4.9877   -2.1793   -2.2265 H         1 <0>         0.1122
     42 H11        -6.8413   -3.5393   -3.8172 H         1 <0>         0.1118
     43 H12        -5.6766   -4.8921   -4.0177 H         1 <0>         0.1017
     44 H13         1.6783   -5.6617   -2.9705 H         1 <0>         0.1019
     45 H14         2.5232   -4.1176   -3.3292 H         1 <0>         0.0825
     46 H15         0.5852   -4.6663   -1.0067 H         1 <0>         0.0437
     47 H16         2.3532   -4.3723   -0.8865 H         1 <0>         0.0954
     48 H17        -0.8913   -2.8886   -1.6241 H         1 <0>         0.0426
     49 H18        -0.2399   -1.2511   -1.9716 H         1 <0>         0.0976
     50 H19         0.8134   -2.0602   -4.0453 H         1 <0>         0.0834
     51 H20        -0.9184   -2.5369   -4.0581 H         1 <0>         0.0946
     52 H21         0.3007   -2.5740    0.5094 H         1 <0>         0.0515
     53 H22         2.0969   -2.5663    0.5052 H         1 <0>         0.0932
     54 H23        -0.9443   -0.5586    0.0021 H         1 <0>         0.1313
     55 H24        -0.9665    1.9007    0.0097 H         1 <0>         0.1335
     56 H25         3.3232    1.9192    0.0036 H         1 <0>         0.1339
     57 H26         3.3221   -0.5403   -0.0069 H         1 <0>         0.1356
@<TRIPOS>BOND
     1    1    2 1
     2    1   32 1
     3    1   33 1
     4    1   34 1
     5    2   10 2
     6    2    3 1
     7    3    8 ar
     8    3    4 ar
     9    4    5 ar
    10    4   15 1
    11    5    6 ar
    12    5   35 1
    13    6    7 ar
    14    6   12 1
    15    7    8 ar
    16    8    9 1
    17    9   10 1
    18    9   11 1
    19   11   36 1
    20   11   37 1
    21   11   38 1
    22   12   14 1
    23   12   13 1
    24   12   39 1
    25   13   14 1
    26   13   40 1
    27   13   41 1
    28   14   42 1
    29   14   43 1
    30   15   16 2
    31   15   17 am
    32   17   22 1
    33   17   18 1
    34   18   19 1
    35   18   44 1
    36   18   45 1
    37   19   20 1
    38   19   46 1
    39   19   47 1
    40   20   21 1
    41   20   23 1
    42   21   22 1
    43   21   48 1
    44   21   49 1
    45   22   50 1
    46   22   51 1
    47   23   24 1
    48   23   52 1
    49   23   53 1
    50   24   29 ar
    51   24   25 ar
    52   25   26 ar
    53   25   54 1
    54   26   27 ar
    55   26   55 1
    56   27   28 ar
    57   27   30 1
    58   28   29 ar
    59   28   56 1
    60   29   57 1
    61   30   31 3
@<TRIPOS>MOLECULE
ZINC16571124
   56    60     0     0     0
SMALL
USER_CHARGES

@<TRIPOS>ATOM
      1 C1         -0.0187    1.5258    0.0104 C.3       1 <0>        -0.1573
      2 C2          0.0021   -0.0041    0.0020 C.3       1 <0>        -0.0858
      3 C3          0.7309   -0.5033    1.2229 C.ar      1 <0>        -0.0852
      4 C4          2.1029   -0.7130    1.1846 C.ar      1 <0>         0.0003
      5 C5          2.7368   -1.1729    2.3305 C.ar      1 <0>        -0.1199
      6 C6          1.9900   -1.4066    3.4663 C.ar      1 <0>         0.1360
      7 N1          0.6790   -1.1961    3.4706 N.ar      1 <0>        -0.2242
      8 C7          0.0437   -0.7515    2.3923 C.ar      1 <0>         0.1412
      9 C8         -0.0351   -1.4384    4.6170 C.2       1 <0>        -0.1437
     10 C9          0.0748   -0.7647    5.8245 C.2       1 <0>         0.2347
     11 C10        -0.9063   -1.4001    6.7389 C.2       1 <0>         0.5331
     12 O1         -1.1078   -1.0849    7.8938 O.2       1 <0>        -0.3880
     13 N2         -1.5345   -2.3831    6.0714 N.am      1 <0>        -0.5304
     14 C11        -1.0776   -2.4627    4.8104 C.2       1 <0>         0.5893
     15 O2         -1.4587   -3.2518    3.9685 O.2       1 <0>        -0.4474
     16 C12        -2.5311   -3.2073    6.6139 C.ar      1 <0>         0.0747
     17 C13        -3.8658   -2.8388    6.5197 C.ar      1 <0>        -0.0662
     18 C14        -4.8455   -3.6525    7.0550 C.ar      1 <0>        -0.1174
     19 C15        -4.4986   -4.8338    7.6846 C.ar      1 <0>        -0.0681
     20 C16        -3.1703   -5.2053    7.7809 C.ar      1 <0>        -0.1447
     21 C17        -2.1847   -4.3981    7.2422 C.ar      1 <0>         0.1233
     22 F1         -0.8871   -4.7638    7.3309 F         1 <0>        -0.1288
     23 C18         0.9796    0.3513    6.1354 C.2       1 <0>        -0.4681
     24 C19         2.2944    0.2512    6.6480 C.2       1 <0>         0.1450
     25 N3          2.7700    1.4570    6.7896 N.2       1 <0>        -0.3204
     26 N4          1.8044    2.3841    6.3830 N.pl3     1 <0>        -0.3740
     27 C20         0.7073    1.7085    5.9755 C.2       1 <0>         0.4709
     28 O3         -0.4409    2.2485    5.5038 O.3       1 <0>        -0.6727
     29 C21         1.9523    3.7776    6.3910 C.ar      1 <0>         0.1849
     30 C22         1.3571    4.5461    5.3994 C.ar      1 <0>        -0.1211
     31 C23         1.5042    5.9193    5.4103 C.ar      1 <0>        -0.1043
     32 C24         2.2438    6.5290    6.4070 C.ar      1 <0>        -0.1380
     33 C25         2.8378    5.7664    7.3959 C.ar      1 <0>        -0.1058
     34 C26         2.6895    4.3932    7.3937 C.ar      1 <0>        -0.1269
     35 C27         3.0201   -1.0285    6.9747 C.3       1 <0>        -0.0797
     36 H1          1.0039    1.9031    0.0027 H         1 <0>         0.0625
     37 H2         -0.5459    1.8868   -0.8726 H         1 <0>         0.0750
     38 H3         -0.5289    1.8773    0.9072 H         1 <0>         0.0644
     39 H4         -1.0205   -0.3814    0.0098 H         1 <0>         0.0925
     40 H5          0.5123   -0.3556   -0.8948 H         1 <0>         0.0973
     41 H6          2.6648   -0.5226    0.2822 H         1 <0>         0.1746
     42 H7          3.8028   -1.3462    2.3326 H         1 <0>         0.1874
     43 H8          2.4766   -1.7649    4.3615 H         1 <0>         0.1996
     44 H9         -1.0229   -0.5863    2.4306 H         1 <0>         0.1980
     45 H10        -4.1383   -1.9164    6.0286 H         1 <0>         0.1408
     46 H11        -5.8840   -3.3654    6.9819 H         1 <0>         0.1445
     47 H12        -5.2669   -5.4675    8.1023 H         1 <0>         0.1453
     48 H13        -2.9024   -6.1283    8.2736 H         1 <0>         0.1492
     49 H14         0.7799    4.0704    4.6203 H         1 <0>         0.1317
     50 H15         1.0415    6.5175    4.6393 H         1 <0>         0.1245
     51 H16         2.3580    7.6029    6.4130 H         1 <0>         0.1223
     52 H17         3.4151    6.2454    8.1729 H         1 <0>         0.1253
     53 H18         3.1499    3.7986    8.1688 H         1 <0>         0.1275
     54 H19         3.5659   -1.3713    6.0956 H         1 <0>         0.0703
     55 H20         3.7205   -0.8509    7.7908 H         1 <0>         0.0838
     56 H21         2.2988   -1.7890    7.2739 H         1 <0>         0.0678
@<TRIPOS>BOND
     1    1    2 1
     2    1   36 1
     3    1   37 1
     4    1   38 1
     5    2    3 1
     6    2   39 1
     7    2   40 1
     8    3    8 ar
     9    3    4 ar
    10    4    5 ar
    11    4   41 1
    12    5    6 ar
    13    5   42 1
    14    6    7 ar
    15    6   43 1
    16    7    8 ar
    17    7    9 1
    18    8   44 1
    19    9   14 1
    20    9   10 2
    21   10   11 1
    22   10   23 1
    23   11   12 2
    24   11   13 am
    25   13   14 am
    26   13   16 1
    27   14   15 2
    28   16   21 ar
    29   16   17 ar
    30   17   18 ar
    31   17   45 1
    32   18   19 ar
    33   18   46 1
    34   19   20 ar
    35   19   47 1
    36   20   21 ar
    37   20   48 1
    38   21   22 1
    39   23   27 2
    40   23   24 1
    41   24   25 2
    42   24   35 1
    43   25   26 1
    44   26   27 1
    45   26   29 1
    46   27   28 1
    47   29   34 ar
    48   29   30 ar
    49   30   31 ar
    50   30   49 1
    51   31   32 ar
    52   31   50 1
    53   32   33 ar
    54   32   51 1
    55   33   34 ar
    56   33   52 1
    57   34   53 1
    58   35   54 1
    59   35   55 1
    60   35   56 1
@<TRIPOS>MOLECULE
ZINC46903213
   54    57     0     0     0
SMALL
USER_CHARGES

@<TRIPOS>ATOM
      1 C1         -2.3403    0.8040   -0.9496 C.2       1 <0>         0.0360
      2 C2         -1.3341    1.5194   -0.4475 C.2       1 <0>        -0.1765
      3 S1         -0.1212    0.2542   -0.1042 S.3       1 <0>         0.1441
      4 C3         -1.0739   -1.1395   -0.6678 C.2       1 <0>         0.3297
      5 N1         -2.2452   -0.5609   -1.0784 N.am      1 <0>        -0.4791
      6 C4         -3.1994   -1.4034   -1.5752 C.2       1 <0>         0.5274
      7 O1         -4.2684   -0.9568   -1.9605 O.2       1 <0>        -0.5205
      8 C5         -2.9506   -2.7746   -1.6421 C.2       1 <0>        -0.3007
      9 C6         -1.7414   -3.2727   -1.2058 C.2       1 <0>         0.2185
     10 N2         -0.8337   -2.4257   -0.7273 N.2       1 <0>        -0.4744
     11 C7         -1.4531   -4.7505   -1.2690 C.3       1 <0>         0.1057
     12 N3         -0.3547   -4.9952   -2.2133 N.3       1 <0>        -0.5251
     13 C8         -0.7528   -4.6505   -3.5847 C.3       1 <0>         0.0395
     14 C9          0.4676   -4.7459   -4.5065 C.3       1 <0>         0.1182
     15 N4          1.0683   -6.0793   -4.3498 N.am      1 <0>        -0.6151
     16 C10         1.3693   -6.5515   -2.9898 C.3       1 <0>         0.1107
     17 C11         0.1134   -6.3849   -2.1277 C.3       1 <0>         0.0412
     18 C12         1.3364   -6.8478   -5.4241 C.2       1 <0>         0.5224
     19 O2          1.0202   -6.4716   -6.5329 O.2       1 <0>        -0.5340
     20 C13         2.0288   -8.1746   -5.2475 C.3       1 <0>        -0.1082
     21 C14         3.4834   -7.9410   -4.8301 C.3       1 <0>        -0.1069
     22 C15         4.1978   -9.2892   -4.7116 C.3       1 <0>         0.0354
     23 N5          4.1462   -9.9871   -6.0026 N.3       1 <0>        -0.5340
     24 C16         2.7603  -10.2644   -6.4013 C.3       1 <0>         0.0595
     25 C17         2.0031   -8.9453   -6.5703 C.3       1 <0>        -0.0973
     26 C18         4.9405  -11.2223   -5.9654 C.3       1 <0>         0.0093
     27 C19         6.4279  -10.8751   -6.0542 C.3       1 <0>         0.4580
     28 F1          6.7923  -10.0986   -4.9490 F         1 <0>        -0.1824
     29 F2          7.1820  -12.0534   -6.0654 F         1 <0>        -0.1836
     30 F3          6.6694  -10.1557   -7.2295 F         1 <0>        -0.1718
     31 H1         -3.2469    1.3046   -1.2560 H         1 <0>         0.1866
     32 H2         -1.2690    2.5859   -0.2898 H         1 <0>         0.2230
     33 H3         -3.7027   -3.4434   -2.0338 H         1 <0>         0.1625
     34 H4         -1.1679   -5.1077   -0.2795 H         1 <0>         0.1075
     35 H5         -2.3447   -5.2807   -1.6037 H         1 <0>         0.0658
     36 H6         -1.5213   -5.3442   -3.9256 H         1 <0>         0.0447
     37 H7         -1.1452   -3.6338   -3.6048 H         1 <0>         0.0832
     38 H8          0.1567   -4.6037   -5.5415 H         1 <0>         0.0972
     39 H9          1.1949   -3.9820   -4.2315 H         1 <0>         0.0765
     40 H10         1.6545   -7.6030   -3.0221 H         1 <0>         0.0923
     41 H11         2.1832   -5.9611   -2.5690 H         1 <0>         0.0827
     42 H12         0.3492   -6.6262   -1.0912 H         1 <0>         0.0946
     43 H13        -0.6671   -7.0546   -2.4889 H         1 <0>         0.0433
     44 H14         1.5168   -8.7532   -4.4787 H         1 <0>         0.0927
     45 H15         3.9836   -7.3289   -5.5807 H         1 <0>         0.0813
     46 H16         3.5083   -7.4301   -3.8676 H         1 <0>         0.0789
     47 H17         5.2376   -9.1257   -4.4285 H         1 <0>         0.1004
     48 H18         3.7055   -9.8954   -3.9511 H         1 <0>         0.0437
     49 H19         2.7561  -10.8091   -7.3454 H         1 <0>         0.0863
     50 H20         2.2748  -10.8660   -5.6329 H         1 <0>         0.0422
     51 H21         0.9703   -9.1519   -6.8510 H         1 <0>         0.0771
     52 H22         2.4799   -8.3490   -7.3482 H         1 <0>         0.0862
     53 H23         4.7460  -11.7514   -5.0325 H         1 <0>         0.0847
     54 H24         4.6647  -11.8571   -6.8075 H         1 <0>         0.1205
@<TRIPOS>BOND
     1    1    5 1
     2    1    2 2
     3    1   31 1
     4    2    3 1
     5    2   32 1
     6    3    4 1
     7    4   10 2
     8    4    5 1
     9    5    6 am
    10    6    7 2
    11    6    8 1
    12    8    9 2
    13    8   33 1
    14    9   10 1
    15    9   11 1
    16   11   12 1
    17   11   34 1
    18   11   35 1
    19   12   17 1
    20   12   13 1
    21   13   14 1
    22   13   36 1
    23   13   37 1
    24   14   15 1
    25   14   38 1
    26   14   39 1
    27   15   16 1
    28   15   18 am
    29   16   17 1
    30   16   40 1
    31   16   41 1
    32   17   42 1
    33   17   43 1
    34   18   19 2
    35   18   20 1
    36   20   25 1
    37   20   21 1
    38   20   44 1
    39   21   22 1
    40   21   45 1
    41   21   46 1
    42   22   23 1
    43   22   47 1
    44   22   48 1
    45   23   24 1
    46   23   26 1
    47   24   25 1
    48   24   49 1
    49   24   50 1
    50   25   51 1
    51   25   52 1
    52   26   27 1
    53   26   53 1
    54   26   54 1
    55   27   28 1
    56   27   29 1
    57   27   30 1
@<TRIPOS>MOLECULE
ZINC01102259
   54    57     0     0     0
SMALL
USER_CHARGES
5-[(5-azepan-1-yl-2-furyl)methylene]-3-(morpholinocarbonylmethyl)thiazolidine-2,4-dione
@<TRIPOS>ATOM
      1 C1         -0.4254    7.5629    0.2585 C.2       1 <0>        -0.0919
      2 C2          0.7740    8.2757    0.3305 C.2       1 <0>        -0.2544
      3 C3          1.7893    7.3665    0.2542 C.2       1 <0>         0.2362
      4 O1          1.2631    6.1366    0.1448 O.3       1 <0>        -0.1256
      5 C4         -0.0863    6.2255    0.1392 C.2       1 <0>        -0.0728
      6 C5         -0.9865    5.1493    0.0364 C.2       1 <0>         0.1288
      7 C6         -0.5139    3.8551    0.0192 C.2       1 <0>        -0.2498
      8 C7          0.8082    3.3720    0.2236 C.2       1 <0>         0.5520
      9 O2          1.7265    4.1393    0.4543 O.2       1 <0>        -0.4546
     10 N1          1.0134    2.0682    0.1559 N.am      1 <0>        -0.5633
     11 C8         -0.0052    1.2171   -0.1004 C.2       1 <0>         0.5576
     12 O3          0.0190    0.0043   -0.1946 O.2       1 <0>        -0.4194
     13 S1         -1.3943    2.3271   -0.2733 S.3       1 <0>        -0.0478
     14 C9          2.3635    1.5379    0.3611 C.3       1 <0>         0.0781
     15 C10         3.0824    1.4685   -0.9616 C.2       1 <0>         0.5098
     16 O4          2.5221    1.8268   -1.9758 O.2       1 <0>        -0.5218
     17 N2          4.3479    1.0083   -1.0174 N.am      1 <0>        -0.6129
     18 C11         5.0504    0.5738    0.2004 C.3       1 <0>         0.0689
     19 C12         5.6414   -0.8212   -0.0593 C.3       1 <0>         0.0460
     20 O5          6.4162   -0.7861   -1.2602 O.3       1 <0>        -0.3758
     21 C13         5.6620   -0.4761   -2.4345 C.3       1 <0>         0.0474
     22 C14         5.0701    0.9313   -2.2972 C.3       1 <0>         0.0785
     23 N3          3.1372    7.6631    0.2889 N.pl3     1 <0>        -0.4499
     24 C15         3.4744    8.7148   -0.6964 C.3       1 <0>         0.0640
     25 C16         4.9573    8.8799   -0.8892 C.3       1 <0>        -0.1233
     26 C17         5.3954    8.0093   -2.0856 C.3       1 <0>        -0.1239
     27 C18         5.5181    6.6009   -1.7261 C.3       1 <0>        -0.1209
     28 C19         4.1799    6.0044   -1.2418 C.3       1 <0>        -0.1350
     29 C20         3.9538    6.4334    0.1824 C.3       1 <0>         0.0479
     30 H1         -1.4232    7.9749    0.2904 H         1 <0>         0.1624
     31 H2          0.8784    9.3461    0.4287 H         1 <0>         0.1557
     32 H3         -2.0480    5.3374   -0.0289 H         1 <0>         0.1775
     33 H4          2.9118    2.1923    1.0388 H         1 <0>         0.1314
     34 H5          2.2998    0.5390    0.7929 H         1 <0>         0.1255
     35 H6          5.8501    1.2768    0.4335 H         1 <0>         0.0865
     36 H7          4.3479    0.5272    1.0325 H         1 <0>         0.0934
     37 H8          4.8351   -1.5467   -0.1673 H         1 <0>         0.0596
     38 H9          6.2792   -1.1065    0.7773 H         1 <0>         0.1112
     39 H10         4.8557   -1.2003   -2.5511 H         1 <0>         0.0582
     40 H11         6.3146   -0.5131   -3.3067 H         1 <0>         0.1104
     41 H12         4.3807    1.1215   -3.1198 H         1 <0>         0.1023
     42 H13         5.8718    1.6697   -2.3113 H         1 <0>         0.0795
     43 H14         3.0220    8.4573   -1.6540 H         1 <0>         0.0535
     44 H15         3.0566    9.6622   -0.3561 H         1 <0>         0.0869
     45 H16         5.4818    8.5572    0.0101 H         1 <0>         0.0797
     46 H17         5.1857    9.9258   -1.0944 H         1 <0>         0.0829
     47 H18         6.3588    8.3668   -2.4492 H         1 <0>         0.0671
     48 H19         4.6593    8.1080   -2.8833 H         1 <0>         0.0608
     49 H20         6.2578    6.5016   -0.9317 H         1 <0>         0.0641
     50 H21         5.8591    6.0429   -2.5982 H         1 <0>         0.0621
     51 H22         4.2236    4.9165   -1.2940 H         1 <0>         0.0729
     52 H23         3.3653    6.3687   -1.8677 H         1 <0>         0.0617
     53 H24         4.9205    6.6115    0.6535 H         1 <0>         0.0853
     54 H25         3.4483    5.6285    0.7159 H         1 <0>         0.0971
@<TRIPOS>BOND
     1    1    5 2
     2    1    2 1
     3    1   30 1
     4    2    3 2
     5    2   31 1
     6    3    4 1
     7    3   23 1
     8    4    5 1
     9    5    6 1
    10    6    7 2
    11    6   32 1
    12    7   13 1
    13    7    8 1
    14    8    9 2
    15    8   10 am
    16   10   11 am
    17   10   14 1
    18   11   12 2
    19   11   13 1
    20   14   15 1
    21   14   33 1
    22   14   34 1
    23   15   16 2
    24   15   17 am
    25   17   22 1
    26   17   18 1
    27   18   19 1
    28   18   35 1
    29   18   36 1
    30   19   20 1
    31   19   37 1
    32   19   38 1
    33   20   21 1
    34   21   22 1
    35   21   39 1
    36   21   40 1
    37   22   41 1
    38   22   42 1
    39   23   29 1
    40   23   24 1
    41   24   25 1
    42   24   43 1
    43   24   44 1
    44   25   26 1
    45   25   45 1
    46   25   46 1
    47   26   27 1
    48   26   47 1
    49   26   48 1
    50   27   28 1
    51   27   49 1
    52   27   50 1
    53   28   29 1
    54   28   51 1
    55   28   52 1
    56   29   53 1
    57   29   54 1
@<TRIPOS>MOLECULE
ZINC15785751
   46    48     0     0     0
SMALL
USER_CHARGES
[2-[(5R)-4-acetyl-5-[(3,5-dimethylpyrazol-1-yl)methyl]-5H-1,3,4-oxadiazol-2-yl]-4-bromo-phenyl] acetate
@<TRIPOS>ATOM
      1 C1         -4.0124    3.5289    4.1742 C.3       1 <0>        -0.0731
      2 C2         -2.7828    3.0061    3.4771 C.2       1 <0>         0.0777
      3 C3         -2.7201    2.5507    2.1561 C.2       1 <0>        -0.2663
      4 C4         -1.4471    2.1642    1.9089 C.2       1 <0>         0.0859
      5 N1         -0.7279    2.3753    3.0310 N.pl3     1 <0>        -0.3729
      6 N2         -1.5885    2.9042    4.0016 N.2       1 <0>        -0.2846
      7 C5          0.7006    2.1002    3.2036 C.3       1 <0>         0.1188
      8 C6          1.5093    3.3390    2.8132 C.3       1 <0>         0.2662
      9 H1          1.2239    3.6817    1.8186 H         1 <0>         0.1186
     10 N3          2.9530    3.0493    2.8641 N.am      1 <0>        -0.4861
     11 N4          3.4745    3.9246    3.8281 N.2       1 <0>        -0.2777
     12 C7          2.5323    4.6606    4.3225 C.2       1 <0>         0.3300
     13 O1          1.3249    4.3840    3.7792 O.3       1 <0>        -0.2983
     14 C8          2.7503    5.6859    5.3628 C.ar      1 <0>        -0.0434
     15 C9          1.6775    6.4415    5.8388 C.ar      1 <0>        -0.0278
     16 C10         1.8866    7.3935    6.8157 C.ar      1 <0>        -0.0957
     17 C11         3.1595    7.6111    7.3169 C.ar      1 <0>        -0.0447
     18 C12         4.2299    6.8733    6.8486 C.ar      1 <0>        -0.1174
     19 C13         4.0354    5.9092    5.8728 C.ar      1 <0>         0.1525
     20 O2          5.0872    5.1829    5.4127 O.3       1 <0>        -0.2819
     21 C14         5.6986    5.6304    4.3042 C.2       1 <0>         0.4716
     22 O3          5.2623    6.5945    3.7210 O.2       1 <0>        -0.4945
     23 C15         6.9290    4.9303    3.7875 C.3       1 <0>        -0.1439
     24 Br1         0.4312    8.4101    7.4672 Br        1 <0>        -0.0220
     25 C16         3.6299    2.1356    2.1375 C.2       1 <0>         0.5617
     26 O4          3.0414    1.4425    1.3340 O.2       1 <0>        -0.5192
     27 C17         5.1168    1.9761    2.3240 C.3       1 <0>        -0.1625
     28 C18        -0.9247    1.6045    0.6109 C.3       1 <0>        -0.0975
     29 H2         -4.0865    4.6056    4.0214 H         1 <0>         0.0778
     30 H3         -4.8972    3.0420    3.7641 H         1 <0>         0.0782
     31 H4         -3.9428    3.3172    5.2411 H         1 <0>         0.0727
     32 H5         -3.5429    2.5122    1.4575 H         1 <0>         0.1491
     33 H6          0.8992    1.8504    4.2459 H         1 <0>         0.1062
     34 H7          0.9888    1.2630    2.5680 H         1 <0>         0.1258
     35 H8          0.6845    6.2778    5.4469 H         1 <0>         0.1548
     36 H9          3.3162    8.3613    8.0779 H         1 <0>         0.1530
     37 H10         5.2196    7.0481    7.2441 H         1 <0>         0.1542
     38 H11         7.1697    4.0903    4.4392 H         1 <0>         0.0973
     39 H12         6.7420    4.5648    2.7778 H         1 <0>         0.1081
     40 H13         7.7652    5.6293    3.7719 H         1 <0>         0.1111
     41 H14         5.3083    1.2336    3.0986 H         1 <0>         0.1048
     42 H15         5.5674    1.6483    1.3871 H         1 <0>         0.1022
     43 H16         5.5503    2.9311    2.6210 H         1 <0>         0.0885
     44 H17        -1.0203    0.5187    0.6187 H         1 <0>         0.0831
     45 H18         0.1245    1.8760    0.4942 H         1 <0>         0.0711
     46 H19        -1.5004    2.0139   -0.2192 H         1 <0>         0.0886
@<TRIPOS>BOND
     1    1    2 1
     2    1   29 1
     3    1   30 1
     4    1   31 1
     5    2    6 2
     6    2    3 1
     7    3    4 2
     8    3   32 1
     9    4    5 1
    10    4   28 1
    11    5    6 1
    12    5    7 1
    13    7    8 1
    14    7   33 1
    15    7   34 1
    16    8    9 1
    17    8   13 1
    18    8   10 1
    19   10   11 1
    20   10   25 am
    21   11   12 2
    22   12   13 1
    23   12   14 1
    24   14   19 ar
    25   14   15 ar
    26   15   16 ar
    27   15   35 1
    28   16   17 ar
    29   16   24 1
    30   17   18 ar
    31   17   36 1
    32   18   19 ar
    33   18   37 1
    34   19   20 1
    35   20   21 1
    36   21   22 2
    37   21   23 1
    38   23   38 1
    39   23   39 1
    40   23   40 1
    41   25   26 2
    42   25   27 1
    43   27   41 1
    44   27   42 1
    45   27   43 1
    46   28   44 1
    47   28   45 1
    48   28   46 1
@<TRIPOS>MOLECULE
ZINC26511173
   40    42     0     0     0
SMALL
USER_CHARGES
methyl 2-[5-bromo-4-[(S)-cyano-(1-methylbenzimidazol-2-yl)methyl]-6-oxo-pyridazin-1-yl]acetate
@<TRIPOS>ATOM
      1 C1         -3.6790    3.8220    0.0568 C.3       1 <0>         0.0601
      2 N1         -2.2372    4.0816    0.0438 N.pl3     1 <0>        -0.4759
      3 C2         -1.2350    3.1322    0.0298 C.ar      1 <0>         0.0610
      4 C3         -1.2183    1.7440    0.0173 C.ar      1 <0>        -0.1124
      5 C4         -0.0126    1.0758    0.0080 C.ar      1 <0>        -0.0903
      6 C5          1.1825    1.7813    0.0003 C.ar      1 <0>        -0.1264
      7 C6          1.1853    3.1473    0.0067 C.ar      1 <0>        -0.0554
      8 C7         -0.0248    3.8460    0.0216 C.ar      1 <0>         0.0464
      9 N2         -0.3440    5.1658    0.0308 N.2       1 <0>        -0.4625
     10 C8         -1.6378    5.3028    0.0438 C.2       1 <0>         0.2674
     11 C9         -2.3662    6.6220    0.0578 C.3       1 <0>         0.1309
     12 H1         -3.4532    6.4538    0.0468 H         1 <0>         0.1520
     13 C10        -2.0077    7.3931   -1.1438 C.1       1 <0>         0.2055
     14 N3         -1.7311    7.9882   -2.0711 N.1       1 <0>        -0.3662
     15 C11        -1.9749    7.3988    1.2884 C.2       1 <0>         0.0046
     16 C12        -0.6363    7.7549    1.5199 C.2       1 <0>         0.0685
     17 N4         -0.3066    8.4326    2.5841 N.2       1 <0>        -0.1910
     18 N5         -1.1672    8.7932    3.4659 N.am      1 <0>        -0.3305
     19 C13        -2.4748    8.4965    3.3401 C.2       1 <0>         0.5041
     20 O1         -3.2729    8.8519    4.1926 O.2       1 <0>        -0.4955
     21 C14        -2.9130    7.7699    2.2105 C.2       1 <0>        -0.1512
     22 Br1        -4.7369    7.3260    1.9817 Br        1 <0>         0.0293
     23 C15        -0.7156    9.5468    4.6382 C.3       1 <0>         0.1186
     24 C16        -0.3521    8.5878    5.7423 C.2       1 <0>         0.4529
     25 O2         -0.4592    7.3970    5.5679 O.2       1 <0>        -0.4925
     26 O3          0.0908    9.0565    6.9196 O.3       1 <0>        -0.3509
     27 C17         0.4222    8.0752    7.9372 C.3       1 <0>         0.0331
     28 H2         -3.8561    2.7364    0.0533 H         1 <0>         0.0999
     29 H3         -4.1406    4.2717   -0.8347 H         1 <0>         0.0878
     30 H4         -4.1228    4.2630    0.9615 H         1 <0>         0.0871
     31 H5         -2.1455    1.1902    0.0190 H         1 <0>         0.1255
     32 H6          0.0021   -0.0041    0.0020 H         1 <0>         0.1337
     33 H7          2.1198    1.2449   -0.0111 H         1 <0>         0.1331
     34 H8          2.1211    3.6863    0.0007 H         1 <0>         0.1333
     35 H9          0.1250    7.4695    0.8089 H         1 <0>         0.2102
     36 H10         0.1654   10.1484    4.3702 H         1 <0>         0.1550
     37 H11        -1.5229   10.2110    4.9804 H         1 <0>         0.1563
     38 H12         0.7693    8.5910    8.8447 H         1 <0>         0.1099
     39 H13         1.2183    7.4143    7.5638 H         1 <0>         0.0675
     40 H14        -0.4700    7.4769    8.1740 H         1 <0>         0.0669
@<TRIPOS>BOND
     1    1    2 1
     2    1   28 1
     3    1   29 1
     4    1   30 1
     5    2   10 1
     6    2    3 1
     7    3    8 ar
     8    3    4 ar
     9    4    5 ar
    10    4   31 1
    11    5    6 ar
    12    5   32 1
    13    6    7 ar
    14    6   33 1
    15    7    8 ar
    16    7   34 1
    17    8    9 1
    18    9   10 2
    19   10   11 1
    20   11   12 1
    21   11   13 1
    22   11   15 1
    23   13   14 3
    24   15   21 2
    25   15   16 1
    26   16   17 2
    27   16   35 1
    28   17   18 1
    29   18   19 am
    30   18   23 1
    31   19   20 2
    32   19   21 1
    33   21   22 1
    34   23   24 1
    35   23   36 1
    36   23   37 1
    37   24   25 2
    38   24   26 1
    39   26   27 1
    40   27   38 1
    41   27   39 1
    42   27   40 1
@<TRIPOS>MOLECULE
ZINC04266087
   55    57     0     0     0
SMALL
USER_CHARGES

@<TRIPOS>ATOM
      1 C1         -0.0187    1.5258    0.0104 C.3       1 <0>        -0.1508
      2 C2          0.0021   -0.0041    0.0020 C.3       1 <0>        -0.1149
      3 C3          0.7182   -0.4975   -1.2568 C.3       1 <0>        -0.0569
      4 C4          0.7386   -2.0043   -1.2651 C.ar      1 <0>         0.4080
      5 N1          1.7539   -2.6256   -0.6938 N.ar      1 <0>        -0.5543
      6 C5          1.8105   -3.9500   -0.6790 C.ar      1 <0>         0.4673
      7 C6          0.7693   -4.6804   -1.2830 C.ar      1 <0>        -0.3021
      8 C7         -0.2899   -3.9789   -1.8783 C.ar      1 <0>         0.2219
      9 N2         -0.2599   -2.6453   -1.8374 N.ar      1 <0>        -0.5502
     10 S1         -1.6233   -4.8332   -2.6508 S.3       1 <0>         0.1503
     11 C8         -2.7054   -3.5067   -3.2509 C.3       1 <0>        -0.1856
     12 C9         -3.9019   -4.1084   -3.9418 C.2       1 <0>         0.5303
     13 O1         -4.0136   -5.3134   -4.0216 O.2       1 <0>        -0.5215
     14 N3         -4.8478   -3.3074   -4.4712 N.am      1 <0>        -0.5974
     15 C10        -4.6821   -1.8751   -4.3644 C.3       1 <0>         0.1042
     16 C11        -5.3263   -1.3743   -3.0482 C.3       1 <0>        -0.1377
     17 C12        -6.7928   -1.4463   -3.1374 C.3       1 <0>        -0.1204
     18 C13        -7.3431   -2.8583   -3.3138 C.3       1 <0>        -0.1181
     19 C14        -7.3297   -3.2210   -4.7783 C.3       1 <0>        -0.1311
     20 C15        -6.0071   -3.9286   -5.1411 C.3       1 <0>         0.1109
     21 C16         0.8371   -6.1447   -1.2631 C.2       1 <0>         0.5689
     22 O2         -0.0384   -6.8187   -1.7722 O.2       1 <0>        -0.4624
     23 N4          1.9010   -6.7245   -0.6630 N.am      1 <0>        -0.5574
     24 C17         2.8694   -5.9842   -0.1005 C.2       1 <0>         0.7082
     25 O3          3.8048   -6.5546    0.4263 O.2       1 <0>        -0.5214
     26 N5          2.8504   -4.6397   -0.0941 N.am      1 <0>        -0.5230
     27 C18         3.9453   -3.9013    0.5401 C.3       1 <0>         0.0856
     28 C19         1.9984   -8.1858   -0.6256 C.3       1 <0>         0.0787
     29 H1          1.0039    1.9031    0.0027 H         1 <0>         0.0586
     30 H2         -0.5459    1.8868   -0.8726 H         1 <0>         0.0580
     31 H3         -0.5289    1.8773    0.9072 H         1 <0>         0.0594
     32 H4          0.5293   -0.3651    0.8851 H         1 <0>         0.0678
     33 H5         -1.0205   -0.3814    0.0098 H         1 <0>         0.0668
     34 H6          0.1910   -0.1364   -2.1398 H         1 <0>         0.0986
     35 H7          1.7408   -0.1202   -1.2645 H         1 <0>         0.0990
     36 H8         -3.0390   -2.9008   -2.4084 H         1 <0>         0.1255
     37 H9         -2.1566   -2.8803   -3.9542 H         1 <0>         0.1252
     38 H10        -3.6197   -1.6316   -4.3641 H         1 <0>         0.0821
     39 H11        -5.1651   -1.3896   -5.2125 H         1 <0>         0.0841
     40 H12        -4.9843   -1.9952   -2.2201 H         1 <0>         0.0639
     41 H13        -5.0260   -0.3418   -2.8695 H         1 <0>         0.0783
     42 H14        -7.2162   -1.0210   -2.2275 H         1 <0>         0.0600
     43 H15        -7.1182   -0.8399   -3.9826 H         1 <0>         0.0615
     44 H16        -6.7228   -3.5623   -2.7591 H         1 <0>         0.0646
     45 H17        -8.3655   -2.8997   -2.9382 H         1 <0>         0.0652
     46 H18        -8.1662   -3.8858   -4.9937 H         1 <0>         0.0781
     47 H19        -7.4274   -2.3148   -5.3760 H         1 <0>         0.0677
     48 H20        -5.8600   -3.8803   -6.2201 H         1 <0>         0.0670
     49 H21        -6.0709   -4.9744   -4.8407 H         1 <0>         0.0927
     50 H22         3.7075   -3.7293    1.5898 H         1 <0>         0.0776
     51 H23         4.8653   -4.4812    0.4663 H         1 <0>         0.0966
     52 H24         4.0779   -2.9440    0.0360 H         1 <0>         0.0997
     53 H25         2.5320   -8.5371   -1.5087 H         1 <0>         0.0785
     54 H26         2.5385   -8.4911    0.2706 H         1 <0>         0.0966
     55 H27         0.9972   -8.6164   -0.6108 H         1 <0>         0.0977
@<TRIPOS>BOND
     1    1    2 1
     2    1   29 1
     3    1   30 1
     4    1   31 1
     5    2    3 1
     6    2   32 1
     7    2   33 1
     8    3    4 1
     9    3   34 1
    10    3   35 1
    11    4    9 ar
    12    4    5 ar
    13    5    6 ar
    14    6   26 1
    15    6    7 ar
    16    7    8 ar
    17    7   21 1
    18    8    9 ar
    19    8   10 1
    20   10   11 1
    21   11   12 1
    22   11   36 1
    23   11   37 1
    24   12   13 2
    25   12   14 am
    26   14   20 1
    27   14   15 1
    28   15   16 1
    29   15   38 1
    30   15   39 1
    31   16   17 1
    32   16   40 1
    33   16   41 1
    34   17   18 1
    35   17   42 1
    36   17   43 1
    37   18   19 1
    38   18   44 1
    39   18   45 1
    40   19   20 1
    41   19   46 1
    42   19   47 1
    43   20   48 1
    44   20   49 1
    45   21   22 2
    46   21   23 am
    47   23   24 am
    48   23   28 1
    49   24   25 2
    50   24   26 am
    51   26   27 1
    52   27   50 1
    53   27   51 1
    54   27   52 1
    55   28   53 1
    56   28   54 1
    57   28   55 1
@<TRIPOS>MOLECULE
ZINC64867740
   46    50     0     0     0
SMALL
USER_CHARGES

@<TRIPOS>ATOM
      1 C1          0.0902    1.4007   -0.0021 C.ar      1 <0>        -0.1335
      2 C2          1.2844    2.1097   -0.0151 C.ar      1 <0>        -0.0724
      3 C3          2.4943    1.4531   -0.0334 C.ar      1 <0>        -0.1065
      4 C4          2.5235    0.0570   -0.0385 C.ar      1 <0>         0.1441
      5 C5          1.3070   -0.6608   -0.0248 C.ar      1 <0>        -0.1927
      6 C6          0.0931    0.0231   -0.0068 C.ar      1 <0>        -0.0416
      7 C7          1.3722   -2.1298   -0.0311 C.2       1 <0>         0.5475
      8 O1          0.3612   -2.8076   -0.0204 O.2       1 <0>        -0.4866
      9 N1          2.6001   -2.6988   -0.0498 N.am      1 <0>        -0.5497
     10 C8          3.7192   -1.9286   -0.0615 C.2       1 <0>         0.3731
     11 N2          3.6928   -0.6305   -0.0568 N.2       1 <0>        -0.5114
     12 C9          2.7235   -4.1586   -0.0569 C.3       1 <0>         0.1841
     13 C10         2.7467   -4.6538   -1.4800 C.2       1 <0>         0.2302
     14 N3          1.6738   -4.9961   -2.2020 N.2       1 <0>        -0.5079
     15 C11         2.0400   -5.3814   -3.3929 C.2       1 <0>         0.2985
     16 O2          3.3740   -5.2961   -3.4695 O.3       1 <0>        -0.0913
     17 N4          3.8139   -4.8128   -2.2090 N.2       1 <0>        -0.3121
     18 C12         1.1199   -5.8432   -4.4935 C.3       1 <0>        -0.0169
     19 H1          0.0814   -5.8282   -4.1630 H         1 <0>         0.1506
     20 C13         1.5205   -7.2497   -4.9960 C.3       1 <0>        -0.1460
     21 C14         1.2703   -7.1962   -6.4870 C.2       1 <0>         0.5260
     22 O3          1.1894   -8.1644   -7.2130 O.2       1 <0>        -0.4908
     23 N5          1.1502   -5.9195   -6.8901 N.am      1 <0>        -0.5567
     24 C15         1.3075   -4.9879   -5.7662 C.3       1 <0>         0.1024
     25 C16         0.9058   -5.5283   -8.2111 C.ar      1 <0>         0.1769
     26 C17         0.8826   -6.4775   -9.2249 C.ar      1 <0>        -0.1495
     27 C18         0.6407   -6.0890  -10.5279 C.ar      1 <0>        -0.0754
     28 C19         0.4220   -4.7562  -10.8245 C.ar      1 <0>        -0.1318
     29 C20         0.4443   -3.8077   -9.8172 C.ar      1 <0>        -0.0070
     30 C21         0.6803   -4.1915   -8.5102 C.ar      1 <0>        -0.1513
     31 Cl1         0.1698   -2.1355  -10.1941 Cl        1 <0>        -0.0614
     32 H2         -0.8487    1.9340    0.0164 H         1 <0>         0.1361
     33 H3          1.2637    3.1895   -0.0111 H         1 <0>         0.1370
     34 H4          3.4165    2.0151   -0.0440 H         1 <0>         0.1417
     35 H5         -0.8386   -0.5229    0.0037 H         1 <0>         0.1398
     36 H6          4.6801   -2.4214   -0.0759 H         1 <0>         0.2027
     37 H7          3.6478   -4.4475    0.4434 H         1 <0>         0.1330
     38 H8          1.8743   -4.5976    0.4668 H         1 <0>         0.1396
     39 H9          2.5740   -7.4417   -4.7926 H         1 <0>         0.1231
     40 H10         0.8961   -8.0128   -4.5315 H         1 <0>         0.1294
     41 H11         0.5470   -4.2084   -5.8122 H         1 <0>         0.1069
     42 H12         2.3036   -4.5454   -5.7798 H         1 <0>         0.0948
     43 H13         1.0540   -7.5186   -8.9944 H         1 <0>         0.1619
     44 H14         0.6227   -6.8270  -11.3162 H         1 <0>         0.1401
     45 H15         0.2338   -4.4549  -11.8444 H         1 <0>         0.1370
     46 H16         0.6933   -3.4517   -7.7234 H         1 <0>         0.1361
@<TRIPOS>BOND
     1    1    6 ar
     2    1    2 ar
     3    1   32 1
     4    2    3 ar
     5    2   33 1
     6    3    4 ar
     7    3   34 1
     8    4   11 1
     9    4    5 ar
    10    5    6 ar
    11    5    7 1
    12    6   35 1
    13    7    8 2
    14    7    9 am
    15    9   10 1
    16    9   12 1
    17   10   11 2
    18   10   36 1
    19   12   13 1
    20   12   37 1
    21   12   38 1
    22   13   17 2
    23   13   14 1
    24   14   15 2
    25   15   16 1
    26   15   18 1
    27   16   17 1
    28   18   19 1
    29   18   24 1
    30   18   20 1
    31   20   21 1
    32   20   39 1
    33   20   40 1
    34   21   22 2
    35   21   23 am
    36   23   24 1
    37   23   25 1
    38   24   41 1
    39   24   42 1
    40   25   30 ar
    41   25   26 ar
    42   26   27 ar
    43   26   43 1
    44   27   28 ar
    45   27   44 1
    46   28   29 ar
    47   28   45 1
    48   29   30 ar
    49   29   31 1
    50   30   46 1
@<TRIPOS>MOLECULE
ZINC01298985
   51    54     0     0     0
SMALL
USER_CHARGES
8-[(3-isobutyl-4-oxo-2-thioxo-thiazolidin-5-ylidene)methyl]-9-morpholino-6,10-diazabicyclo[4.4.0]deca-2,4,8,10-tetraen-7-one
@<TRIPOS>ATOM
      1 C1         -2.2302    2.1029   -5.4909 C.3       1 <0>        -0.1511
      2 C2         -2.2877    2.9157   -4.1959 C.3       1 <0>        -0.1059
      3 C3         -2.6638    4.3632   -4.5186 C.3       1 <0>        -0.1423
      4 C4         -3.3378    2.3122   -3.2611 C.3       1 <0>         0.0885
      5 N1         -2.9170    0.9684   -2.8568 N.am      1 <0>        -0.5207
      6 C5         -2.1791    0.8158   -1.7710 C.2       1 <0>         0.5436
      7 O1         -1.8478    1.7764   -1.0986 O.2       1 <0>        -0.4689
      8 C6         -1.7871   -0.5037   -1.4059 C.2       1 <0>        -0.2494
      9 C7         -1.0360   -0.9244   -0.3468 C.2       1 <0>         0.1625
     10 C8         -0.8640   -2.3076   -0.1069 C.2       1 <0>        -0.3613
     11 C9         -1.9814   -3.1586    0.0631 C.2       1 <0>         0.4425
     12 N2         -1.7905   -4.4515    0.2821 N.2       1 <0>        -0.5715
     13 C10        -0.5667   -4.9753    0.3565 C.2       1 <0>         0.4287
     14 C11        -0.4258   -6.3541    0.5960 C.2       1 <0>        -0.1438
     15 C12         0.8215   -6.8989    0.6738 C.2       1 <0>        -0.0124
     16 C13         1.9459   -6.0776    0.5140 C.2       1 <0>        -0.1648
     17 C14         1.7919   -4.7540    0.2857 C.2       1 <0>         0.1091
     18 N3          0.5490   -4.1997    0.2053 N.am      1 <0>        -0.4303
     19 C15         0.4304   -2.8743   -0.0252 C.2       1 <0>         0.5394
     20 O2          1.4216   -2.1778   -0.1609 O.2       1 <0>        -0.5086
     21 N4         -3.2591   -2.6475   -0.0032 N.pl3     1 <0>        -0.4668
     22 C16        -3.5058   -1.7018    1.0950 C.3       1 <0>         0.0216
     23 C17        -4.9121   -1.1143    0.9492 C.3       1 <0>         0.0667
     24 O3         -5.8676   -2.1782    0.9259 O.3       1 <0>        -0.3765
     25 C18        -5.6575   -3.1177   -0.1317 C.3       1 <0>         0.0582
     26 C19        -4.2588   -3.7254    0.0032 C.3       1 <0>         0.0276
     27 S1         -2.5459   -1.4589   -2.7125 S.3       1 <0>         0.0889
     28 C20        -3.2890   -0.0980   -3.5996 C.2       1 <0>         0.2735
     29 S2         -4.2333   -0.1350   -5.0272 S.2       1 <0>        -0.3471
     30 H1         -1.4821    2.5328   -6.1569 H         1 <0>         0.0555
     31 H2         -1.9622    1.0716   -5.2610 H         1 <0>         0.0462
     32 H3         -3.2054    2.1250   -5.9773 H         1 <0>         0.0764
     33 H4         -1.3125    2.8935   -3.7095 H         1 <0>         0.0723
     34 H5         -2.7047    4.9423   -3.5961 H         1 <0>         0.0583
     35 H6         -1.9157    4.7932   -5.1846 H         1 <0>         0.0636
     36 H7         -3.6390    4.3854   -5.0051 H         1 <0>         0.0623
     37 H8         -4.2946    2.2527   -3.7797 H         1 <0>         0.1113
     38 H9         -3.4420    2.9415   -2.3772 H         1 <0>         0.1028
     39 H10        -0.5730   -0.2011    0.3081 H         1 <0>         0.1532
     40 H11        -1.2997   -6.9769    0.7171 H         1 <0>         0.1721
     41 H12         0.9423   -7.9564    0.8569 H         1 <0>         0.1603
     42 H13         2.9369   -6.5025    0.5744 H         1 <0>         0.1666
     43 H14         2.6639   -4.1285    0.1644 H         1 <0>         0.1881
     44 H15        -3.4262   -2.2230    2.0490 H         1 <0>         0.0689
     45 H16        -2.7700   -0.8985    1.0559 H         1 <0>         0.0958
     46 H17        -4.9754   -0.5479    0.0201 H         1 <0>         0.0597
     47 H18        -5.1208   -0.4561    1.7926 H         1 <0>         0.1099
     48 H19        -5.7425   -2.6095   -1.0922 H         1 <0>         0.0645
     49 H20        -6.4053   -3.9084   -0.0709 H         1 <0>         0.1093
     50 H21        -4.0726   -4.3994   -0.8330 H         1 <0>         0.1016
     51 H22        -4.1912   -4.2790    0.9397 H         1 <0>         0.0721
@<TRIPOS>BOND
     1    1    2 1
     2    1   30 1
     3    1   31 1
     4    1   32 1
     5    2    3 1
     6    2    4 1
     7    2   33 1
     8    3   34 1
     9    3   35 1
    10    3   36 1
    11    4    5 1
    12    4   37 1
    13    4   38 1
    14    5   28 1
    15    5    6 am
    16    6    7 2
    17    6    8 1
    18    8    9 2
    19    8   27 1
    20    9   10 1
    21    9   39 1
    22   10   19 1
    23   10   11 2
    24   11   12 1
    25   11   21 1
    26   12   13 2
    27   13   18 1
    28   13   14 1
    29   14   15 2
    30   14   40 1
    31   15   16 1
    32   15   41 1
    33   16   17 2
    34   16   42 1
    35   17   18 1
    36   17   43 1
    37   18   19 am
    38   19   20 2
    39   21   26 1
    40   21   22 1
    41   22   23 1
    42   22   44 1
    43   22   45 1
    44   23   24 1
    45   23   46 1
    46   23   47 1
    47   24   25 1
    48   25   26 1
    49   25   48 1
    50   25   49 1
    51   26   50 1
    52   26   51 1
    53   27   28 1
    54   28   29 2
@<TRIPOS>MOLECULE
ZINC16752151
   54    59     0     0     0
SMALL
USER_CHARGES
(1R)-1'-ethyl-7-fluoro-2-[[(2R)-tetrahydrofuran-2-yl]methyl]spiro[chromeno[2,3-c]pyrrole-1,3'-indoline]-2',3,9-trione
@<TRIPOS>ATOM
      1 C1         -1.2600    6.5956   -1.4039 C.3       1 <0>        -0.1700
      2 C2         -0.8817    6.2390    0.0350 C.3       1 <0>         0.1072
      3 N1          0.1808    5.2303    0.0248 N.am      1 <0>        -0.5417
      4 C3         -0.0522    3.8538    0.0209 C.ar      1 <0>         0.1694
      5 C4         -1.2437    3.1317    0.0287 C.ar      1 <0>        -0.1408
      6 C5         -1.2187    1.7526    0.0173 C.ar      1 <0>        -0.0707
      7 C6         -0.0126    1.0758    0.0080 C.ar      1 <0>        -0.1437
      8 C7          1.1752    1.7855    0.0004 C.ar      1 <0>         0.0057
      9 C8          1.1543    3.1622    0.0080 C.ar      1 <0>        -0.1252
     10 C9          2.2348    4.2105    0.0055 C.3       1 <0>         0.2319
     11 C10         1.4943    5.5236    0.0182 C.2       1 <0>         0.5395
     12 O1          1.9876    6.6316    0.0214 O.2       1 <0>        -0.4753
     13 C11         3.1109    4.0909   -1.2069 C.2       1 <0>        -0.2437
     14 C12         2.8385    4.1355   -2.6461 C.2       1 <0>         0.4511
     15 O2          1.7105    4.2942   -3.0785 O.2       1 <0>        -0.4282
     16 C13         3.9979    3.9790   -3.5460 C.ar      1 <0>        -0.1886
     17 C14         3.8515    4.0097   -4.9317 C.ar      1 <0>        -0.0609
     18 C15         4.9625    3.8628   -5.7359 C.ar      1 <0>         0.0788
     19 C16         6.2181    3.6844   -5.1665 C.ar      1 <0>        -0.0822
     20 C17         6.3727    3.6517   -3.7983 C.ar      1 <0>        -0.1028
     21 C18         5.2658    3.7979   -2.9673 C.ar      1 <0>         0.1466
     22 O3          5.4062    3.7670   -1.6294 O.3       1 <0>        -0.1910
     23 C19         4.3816    3.9078   -0.7664 C.2       1 <0>         0.1183
     24 C20         4.3646    3.9025    0.7186 C.2       1 <0>         0.5811
     25 O4          5.3429    3.7587    1.4245 O.2       1 <0>        -0.4738
     26 N2          3.1082    4.0802    1.1696 N.am      1 <0>        -0.5646
     27 C21         2.6925    4.1337    2.5734 C.3       1 <0>         0.1427
     28 C22         2.3431    2.7244    3.0558 C.3       1 <0>         0.0512
     29 H1          3.2096    2.0715    2.9512 H         1 <0>         0.0770
     30 C23         1.8969    2.7708    4.5301 C.3       1 <0>        -0.1460
     31 C24         0.4662    2.1798    4.5123 C.3       1 <0>        -0.1520
     32 C25         0.4614    1.3807    3.1842 C.3       1 <0>         0.0419
     33 O5          1.2438    2.2041    2.2897 O.3       1 <0>        -0.3444
     34 F1          4.8300    3.8919   -7.0801 F         1 <0>        -0.1262
     35 H2         -0.3868    6.9929   -1.9214 H         1 <0>         0.0612
     36 H3         -1.6123    5.7020   -1.9192 H         1 <0>         0.0642
     37 H4         -2.0505    7.3461   -1.3964 H         1 <0>         0.0746
     38 H5         -1.7549    5.8417    0.5524 H         1 <0>         0.0901
     39 H6         -0.5294    7.1326    0.5502 H         1 <0>         0.0904
     40 H7         -2.1894    3.6531    0.0394 H         1 <0>         0.1239
     41 H8         -2.1457    1.1984    0.0194 H         1 <0>         0.1290
     42 H9          0.0021   -0.0041    0.0020 H         1 <0>         0.1268
     43 H10         2.1185    1.2597   -0.0111 H         1 <0>         0.1167
     44 H11         2.8753    4.1477   -5.3726 H         1 <0>         0.1592
     45 H12         7.0822    3.5705   -5.8043 H         1 <0>         0.1600
     46 H13         7.3543    3.5128   -3.3697 H         1 <0>         0.1615
     47 H14         3.5063    4.5334    3.1783 H         1 <0>         0.1112
     48 H15         1.8183    4.7777    2.6691 H         1 <0>         0.0925
     49 H16         2.5548    2.1590    5.1472 H         1 <0>         0.0814
     50 H17         1.8827    3.7988    4.8922 H         1 <0>         0.0791
     51 H18         0.3077    1.5190    5.3645 H         1 <0>         0.0800
     52 H19        -0.2819    2.9724    4.4920 H         1 <0>         0.0756
     53 H20         0.9345    0.4081    3.3198 H         1 <0>         0.0593
     54 H21        -0.5558    1.2627    2.8109 H         1 <0>         0.0926
@<TRIPOS>BOND
     1    1    2 1
     2    1   35 1
     3    1   36 1
     4    1   37 1
     5    2    3 1
     6    2   38 1
     7    2   39 1
     8    3   11 am
     9    3    4 1
    10    4    9 ar
    11    4    5 ar
    12    5    6 ar
    13    5   40 1
    14    6    7 ar
    15    6   41 1
    16    7    8 ar
    17    7   42 1
    18    8    9 ar
    19    8   43 1
    20    9   10 1
    21   10   26 1
    22   10   11 1
    23   10   13 1
    24   11   12 2
    25   13   23 2
    26   13   14 1
    27   14   15 2
    28   14   16 1
    29   16   21 ar
    30   16   17 ar
    31   17   18 ar
    32   17   44 1
    33   18   19 ar
    34   18   34 1
    35   19   20 ar
    36   19   45 1
    37   20   21 ar
    38   20   46 1
    39   21   22 1
    40   22   23 1
    41   23   24 1
    42   24   25 2
    43   24   26 am
    44   26   27 1
    45   27   28 1
    46   27   47 1
    47   27   48 1
    48   28   29 1
    49   28   33 1
    50   28   30 1
    51   30   31 1
    52   30   49 1
    53   30   50 1
    54   31   32 1
    55   31   51 1
    56   31   52 1
    57   32   33 1
    58   32   53 1
    59   32   54 1
@<TRIPOS>MOLECULE
ZINC14189505
   47    50     0     0     0
SMALL
USER_CHARGES
1-(3,5-dimethylisoxazol-4-yl)sulfonyl-4-[[2-(3-thienyl)thiazol-4-yl]methyl]piperazine
@<TRIPOS>ATOM
      1 C1         -0.0127    1.0858    0.0080 C.3       1 <0>        -0.1073
      2 C2         -0.7181    1.5718    1.2479 C.2       1 <0>         0.1096
      3 C3         -0.1289    1.8553    2.5014 C.2       1 <0>        -0.8003
      4 C4         -1.1706    2.2531    3.2703 C.2       1 <0>         0.1135
      5 O1         -2.2608    2.1930    2.4929 O.3       1 <0>         0.1017
      6 N1         -1.9897    1.8192    1.3753 N.2       1 <0>        -0.3619
      7 C5         -1.1149    2.6788    4.7149 C.3       1 <0>        -0.1095
      8 S1          1.5679    1.7227    2.9575 S.o2      1 <0>         2.7232
      9 O2          1.5976    1.5607    4.3689 O.2       1 <0>        -0.9457
     10 O3          2.1546    0.7805    2.0701 O.2       1 <0>        -0.9432
     11 N2          2.2776    3.1834    2.6337 N.pl3     1 <0>        -0.9957
     12 C6          2.8887    3.4518    1.3230 C.3       1 <0>         0.1244
     13 C7          2.3231    4.7777    0.7898 C.3       1 <0>         0.0367
     14 N3          2.5243    5.8295    1.7954 N.3       1 <0>        -0.5220
     15 C8          1.7808    5.5373    3.0282 C.3       1 <0>         0.0399
     16 C9          2.3188    4.2447    3.6511 C.3       1 <0>         0.1225
     17 C10         2.1579    7.1472    1.2594 C.3       1 <0>         0.1238
     18 C11         2.7454    7.3100   -0.1188 C.2       1 <0>         0.0685
     19 C12         2.0010    7.0122   -1.2144 C.2       1 <0>        -0.2066
     20 S2          3.1677    7.3836   -2.5180 S.3       1 <0>         0.0130
     21 C13         4.5209    7.8863   -1.4631 C.2       1 <0>         0.1816
     22 N4          3.9808    7.7352   -0.2615 N.2       1 <0>        -0.4827
     23 C14         5.8763    8.3464   -1.8311 C.2       1 <0>        -0.0613
     24 C15         6.2602    8.4391   -3.1673 C.2       1 <0>        -0.1454
     25 C16         7.5080    8.8644   -3.4634 C.2       1 <0>        -0.1649
     26 S3          8.2040    9.1563   -1.8462 S.3       1 <0>         0.0795
     27 C17         6.7837    8.6974   -0.8673 C.2       1 <0>        -0.1104
     28 H1          1.0610    0.9716    0.2180 H         1 <0>         0.1043
     29 H2         -0.1521    1.8157   -0.8031 H         1 <0>         0.0878
     30 H3         -0.4321    0.1154   -0.2959 H         1 <0>         0.0928
     31 H4         -2.1258    2.9437    5.0583 H         1 <0>         0.1000
     32 H5         -0.4533    3.5519    4.8146 H         1 <0>         0.1045
     33 H6         -0.7250    1.8515    5.3261 H         1 <0>         0.1212
     34 H7          3.9804    3.5254    1.4356 H         1 <0>         0.0887
     35 H8          2.6459    2.6323    0.6305 H         1 <0>         0.0945
     36 H9          2.8444    5.0514   -0.1393 H         1 <0>         0.0897
     37 H10         1.2481    4.6626    0.5868 H         1 <0>         0.0387
     38 H11         1.9070    6.3680    3.7381 H         1 <0>         0.0952
     39 H12         0.7133    5.4155    2.7925 H         1 <0>         0.0391
     40 H13         1.6954    3.9541    4.5095 H         1 <0>         0.0955
     41 H14         3.3564    4.3926    3.9849 H         1 <0>         0.0910
     42 H15         1.0624    7.2283    1.2029 H         1 <0>         0.0522
     43 H16         2.5502    7.9340    1.9205 H         1 <0>         0.0979
     44 H17         0.9850    6.6522   -1.2805 H         1 <0>         0.1949
     45 H18         5.5704    8.1744   -3.9551 H         1 <0>         0.1384
     46 H19         7.9672    8.9951   -4.4321 H         1 <0>         0.1942
     47 H20         6.6698    8.6962    0.2067 H         1 <0>         0.1983
@<TRIPOS>BOND
     1    1    2 1
     2    1   28 1
     3    1   29 1
     4    1   30 1
     5    2    6 2
     6    2    3 1
     7    3    4 2
     8    3    8 1
     9    4    5 1
    10    4    7 1
    11    5    6 1
    12    7   31 1
    13    7   32 1
    14    7   33 1
    15    8    9 2
    16    8   10 2
    17    8   11 1
    18   11   16 1
    19   11   12 1
    20   12   13 1
    21   12   34 1
    22   12   35 1
    23   13   14 1
    24   13   36 1
    25   13   37 1
    26   14   15 1
    27   14   17 1
    28   15   16 1
    29   15   38 1
    30   15   39 1
    31   16   40 1
    32   16   41 1
    33   17   18 1
    34   17   42 1
    35   17   43 1
    36   18   22 1
    37   18   19 2
    38   19   20 1
    39   19   44 1
    40   20   21 1
    41   21   22 2
    42   21   23 1
    43   23   27 2
    44   23   24 1
    45   24   25 2
    46   24   45 1
    47   25   26 1
    48   25   46 1
    49   26   27 1
    50   27   47 1
@<TRIPOS>MOLECULE
ZINC37399224
   57    59     0     0     0
SMALL
USER_CHARGES

@<TRIPOS>ATOM
      1 C1         -8.4171  -30.8943  -11.8732 C.3       1 <0>        -0.0853
      2 C2         -8.3445  -30.4966  -10.4214 C.ar      1 <0>         0.3316
      3 N1         -7.3761  -29.6959  -10.0242 N.ar      1 <0>        -0.5057
      4 C3         -7.2762  -29.3215   -8.7567 C.ar      1 <0>         0.2025
      5 C4         -8.2046  -29.7812   -7.8432 C.ar      1 <0>        -0.1810
      6 C5         -9.2178  -30.6279   -8.2970 C.ar      1 <0>         0.4360
      7 N2         -9.2542  -30.9547   -9.5857 N.ar      1 <0>        -0.5243
      8 N3        -10.1726  -31.1161   -7.4199 N.pl3     1 <0>        -0.6561
      9 C6        -10.0249  -32.4495   -6.8197 C.3       1 <0>         0.1349
     10 C7        -10.0909  -32.3101   -5.2938 C.3       1 <0>         0.1189
     11 N4        -11.2694  -31.5036   -4.9465 N.am      1 <0>        -0.6214
     12 C8        -11.4171  -30.1703   -5.5466 C.3       1 <0>         0.0147
     13 C9        -11.3483  -30.3074   -7.0682 C.3       1 <0>         0.1365
     14 C10       -12.1983  -31.9785   -4.0932 C.2       1 <0>         0.7126
     15 O1        -12.3274  -33.1779   -3.9410 O.2       1 <0>        -0.5807
     16 N5        -12.9841  -31.1239   -3.4086 N.am      1 <0>        -0.6335
     17 C11       -13.8850  -31.6293   -2.3697 C.3       1 <0>         0.1013
     18 C12       -12.9374  -29.6896   -3.7033 C.3       1 <0>         0.0600
     19 C13        -8.1257  -29.3792   -6.3929 C.3       1 <0>        -0.0322
     20 C14        -9.1328  -28.2925   -6.1173 C.ar      1 <0>        -0.1085
     21 C15        -9.5049  -27.4208   -7.1267 C.ar      1 <0>         0.1305
     22 C16       -10.4301  -26.4228   -6.8722 C.ar      1 <0>        -0.1511
     23 C17       -10.9817  -26.2970   -5.6111 C.ar      1 <0>        -0.0737
     24 C18       -10.6103  -27.1671   -4.6036 C.ar      1 <0>        -0.1334
     25 C19        -9.6899  -28.1688   -4.8577 C.ar      1 <0>        -0.0065
     26 Cl1        -9.2294  -29.2656   -3.5933 Cl        1 <0>        -0.0441
     27 F1         -8.9651  -27.5438   -8.3591 F         1 <0>        -0.1097
     28 C20        -6.1629  -28.4058   -8.3174 C.3       1 <0>         0.1069
     29 O2         -6.5597  -27.0467   -8.5106 O.3       1 <0>        -0.3687
     30 C21        -5.5321  -26.0951   -8.2270 C.3       1 <0>         0.0298
     31 H1         -9.0254  -30.1721  -12.4178 H         1 <0>         0.0863
     32 H2         -7.4123  -30.9145  -12.2951 H         1 <0>         0.0869
     33 H3         -8.8662  -31.8840  -11.9568 H         1 <0>         0.0858
     34 H4        -10.8319  -33.0967   -7.1632 H         1 <0>         0.0666
     35 H5         -9.0636  -32.8754   -7.1069 H         1 <0>         0.0794
     36 H6        -10.1764  -33.2973   -4.8397 H         1 <0>         0.0999
     37 H7         -9.1895  -31.8152   -4.9323 H         1 <0>         0.0654
     38 H8        -12.3785  -29.7443   -5.2594 H         1 <0>         0.1255
     39 H9        -10.6102  -29.5231   -5.2031 H         1 <0>         0.0984
     40 H10       -11.2607  -29.3190   -7.5194 H         1 <0>         0.0714
     41 H11       -12.2516  -30.7986   -7.4298 H         1 <0>         0.0603
     42 H12       -13.3669  -31.6346   -1.4107 H         1 <0>         0.0533
     43 H13       -14.7623  -30.9857   -2.3051 H         1 <0>         0.0687
     44 H14       -14.1960  -32.6434   -2.6203 H         1 <0>         0.0792
     45 H15       -13.5645  -29.4759   -4.5688 H         1 <0>         0.0619
     46 H16       -13.3030  -29.1297   -2.8425 H         1 <0>         0.0735
     47 H17       -11.9098  -29.3961   -3.9179 H         1 <0>         0.0863
     48 H18        -8.3421  -30.2430   -5.7642 H         1 <0>         0.1012
     49 H19        -7.1240  -29.0108   -6.1719 H         1 <0>         0.0971
     50 H20       -10.7205  -25.7423   -7.6590 H         1 <0>         0.1425
     51 H21       -11.7032  -25.5182   -5.4129 H         1 <0>         0.1455
     52 H22       -11.0417  -27.0677   -3.6185 H         1 <0>         0.1434
     53 H23        -5.9481  -28.5751   -7.2622 H         1 <0>         0.0705
     54 H24        -5.2696  -28.6109   -8.9074 H         1 <0>         0.0743
     55 H25        -5.9365  -25.0867   -8.3143 H         1 <0>         0.0889
     56 H26        -5.1616  -26.2516   -7.2139 H         1 <0>         0.0425
     57 H27        -4.7142  -26.2213   -8.9364 H         1 <0>         0.0454
@<TRIPOS>BOND
     1    1    2 1
     2    1   31 1
     3    1   32 1
     4    1   33 1
     5    2    7 ar
     6    2    3 ar
     7    3    4 ar
     8    4    5 ar
     9    4   28 1
    10    5    6 ar
    11    5   19 1
    12    6    7 ar
    13    6    8 1
    14    8   13 1
    15    8    9 1
    16    9   10 1
    17    9   34 1
    18    9   35 1
    19   10   11 1
    20   10   36 1
    21   10   37 1
    22   11   12 1
    23   11   14 am
    24   12   13 1
    25   12   38 1
    26   12   39 1
    27   13   40 1
    28   13   41 1
    29   14   15 2
    30   14   16 am
    31   16   17 1
    32   16   18 1
    33   17   42 1
    34   17   43 1
    35   17   44 1
    36   18   45 1
    37   18   46 1
    38   18   47 1
    39   19   20 1
    40   19   48 1
    41   19   49 1
    42   20   25 ar
    43   20   21 ar
    44   21   22 ar
    45   21   27 1
    46   22   23 ar
    47   22   50 1
    48   23   24 ar
    49   23   51 1
    50   24   25 ar
    51   24   52 1
    52   25   26 1
    53   28   29 1
    54   28   53 1
    55   28   54 1
    56   29   30 1
    57   30   55 1
    58   30   56 1
    59   30   57 1
@<TRIPOS>MOLECULE
ZINC57293489
   59    62     0     0     0
SMALL
USER_CHARGES

@<TRIPOS>ATOM
      1 C1         -0.8345   -0.0954   -0.2151 C.3       1 <0>        -0.1692
      2 C2          0.4003   -0.8773   -0.6677 C.3       1 <0>         0.1108
      3 N1          1.0704   -1.4515    0.5017 N.am      1 <0>        -0.6026
      4 C3          0.7005   -2.7876    0.9753 C.3       1 <0>         0.0881
      5 C4          1.5016   -3.8408    0.2072 C.3       1 <0>        -0.1708
      6 C5          2.0272   -0.7506    1.1418 C.2       1 <0>         0.5609
      7 O1          2.2754    0.3897    0.8019 O.2       1 <0>        -0.5105
      8 C6          2.7751   -1.3689    2.2578 C.ar      1 <0>         0.0131
      9 C7          2.1169   -1.8343    3.3908 C.ar      1 <0>        -0.1814
     10 C8          2.8600   -2.4124    4.4239 C.ar      1 <0>         0.2518
     11 N2          4.1756   -2.5258    4.3471 N.ar      1 <0>        -0.4907
     12 C9          4.8540   -2.1003    3.2927 C.ar      1 <0>         0.3311
     13 C10         4.1807   -1.5103    2.2031 C.ar      1 <0>        -0.1902
     14 C11         5.1589   -1.1718    1.2446 C.2       1 <0>         0.1242
     15 N3          6.3269   -1.5263    1.6995 N.2       1 <0>        -0.2343
     16 N4          6.1867   -2.0983    2.9695 N.pl3     1 <0>        -0.3823
     17 C12         7.2737   -2.6195    3.8020 C.3       1 <0>         0.1792
     18 H1          6.8597   -3.0263    4.7246 H         1 <0>         0.1302
     19 C13         8.0122   -3.7321    3.0396 C.3       1 <0>        -0.1426
     20 C14         9.3328   -4.0455    3.7992 C.3       1 <0>        -0.5704
     21 S1          9.8711   -2.3435    4.2558 S.o2      1 <0>         2.3788
     22 O2         10.7365   -1.8454    3.2447 O.2       1 <0>        -0.9225
     23 O3         10.3040   -2.3430    5.6092 O.2       1 <0>        -0.9282
     24 C15         8.2561   -1.4727    4.1416 C.3       1 <0>        -0.6028
     25 C16         4.8963   -0.5108   -0.0840 C.3       1 <0>        -0.0767
     26 C17         2.1584   -2.9088    5.6324 C.ar      1 <0>        -0.0680
     27 C18         0.7719   -2.8028    5.7294 C.ar      1 <0>        -0.0871
     28 C19         0.1243   -3.2664    6.8565 C.ar      1 <0>        -0.1242
     29 C20         0.8485   -3.8351    7.8888 C.ar      1 <0>        -0.0639
     30 C21         2.2247   -3.9425    7.7982 C.ar      1 <0>        -0.1273
     31 C22         2.8823   -3.4884    6.6731 C.ar      1 <0>        -0.0664
     32 C23         0.1356   -4.3391    9.1171 C.3       1 <0>        -0.1212
     33 H2         -0.5305    0.7053    0.4591 H         1 <0>         0.0612
     34 H3         -1.3331    0.3318   -1.0851 H         1 <0>         0.0693
     35 H4         -1.5195   -0.7664    0.3032 H         1 <0>         0.0564
     36 H5          0.0963   -1.6781   -1.3419 H         1 <0>         0.0814
     37 H6          1.0854   -0.2064   -1.1860 H         1 <0>         0.0864
     38 H7          0.9198   -2.8694    2.0399 H         1 <0>         0.0889
     39 H8         -0.3647   -2.9496    0.8102 H         1 <0>         0.0860
     40 H9          1.2823   -3.7591   -0.8573 H         1 <0>         0.0618
     41 H10         2.5668   -3.6788    0.3723 H         1 <0>         0.0553
     42 H11         1.2264   -4.8349    0.5596 H         1 <0>         0.0704
     43 H12         1.0433   -1.7496    3.4719 H         1 <0>         0.1515
     44 H13         7.3898   -4.6261    2.9990 H         1 <0>         0.1073
     45 H14         8.2401   -3.3964    2.0280 H         1 <0>         0.1048
     46 H15         9.1435   -4.6502    4.6861 H         1 <0>         0.1453
     47 H16        10.0596   -4.5264    3.1444 H         1 <0>         0.1503
     48 H17         8.2730   -0.7295    3.3443 H         1 <0>         0.1532
     49 H18         7.9979   -1.0122    5.0952 H         1 <0>         0.1498
     50 H19         4.8469    0.5696    0.0512 H         1 <0>         0.0936
     51 H20         5.7023   -0.7539   -0.7763 H         1 <0>         0.0813
     52 H21         3.9497   -0.8701   -0.4878 H         1 <0>         0.0769
     53 H22         0.2056   -2.3584    4.9244 H         1 <0>         0.1276
     54 H23        -0.9499   -3.1848    6.9328 H         1 <0>         0.1291
     55 H24         2.7850   -4.3870    8.6074 H         1 <0>         0.1280
     56 H25         3.9563   -3.5771    6.6013 H         1 <0>         0.1352
     57 H26        -0.1376   -5.3847    8.9753 H         1 <0>         0.0749
     58 H27         0.7935   -4.2495    9.9815 H         1 <0>         0.0696
     59 H28        -0.7648   -3.7475    9.2830 H         1 <0>         0.0695
@<TRIPOS>BOND
     1    1    2 1
     2    1   33 1
     3    1   34 1
     4    1   35 1
     5    2    3 1
     6    2   36 1
     7    2   37 1
     8    3    4 1
     9    3    6 am
    10    4    5 1
    11    4   38 1
    12    4   39 1
    13    5   40 1
    14    5   41 1
    15    5   42 1
    16    6    7 2
    17    6    8 1
    18    8   13 ar
    19    8    9 ar
    20    9   10 ar
    21    9   43 1
    22   10   11 ar
    23   10   26 1
    24   11   12 ar
    25   12   16 1
    26   12   13 ar
    27   13   14 1
    28   14   15 2
    29   14   25 1
    30   15   16 1
    31   16   17 1
    32   17   18 1
    33   17   24 1
    34   17   19 1
    35   19   20 1
    36   19   44 1
    37   19   45 1
    38   20   21 1
    39   20   46 1
    40   20   47 1
    41   21   22 2
    42   21   23 2
    43   21   24 1
    44   24   48 1
    45   24   49 1
    46   25   50 1
    47   25   51 1
    48   25   52 1
    49   26   31 ar
    50   26   27 ar
    51   27   28 ar
    52   27   53 1
    53   28   29 ar
    54   28   54 1
    55   29   30 ar
    56   29   32 1
    57   30   31 ar
    58   30   55 1
    59   31   56 1
    60   32   57 1
    61   32   58 1
    62   32   59 1
@<TRIPOS>MOLECULE
ZINC65254688
   51    54     0     0     0
SMALL
USER_CHARGES

@<TRIPOS>ATOM
      1 C1          0.0401    1.5019    0.0867 C.3       1 <0>        -0.1694
      2 C2          0.0565   -0.0278    0.0656 C.3       1 <0>         0.1058
      3 N1          0.7273   -0.4923   -1.1511 N.am      1 <0>        -0.6207
      4 C3         -0.0653   -0.7141   -2.3540 C.3       1 <0>         0.1026
      5 C4          0.6572   -0.2750   -3.6270 C.3       1 <0>         0.0828
      6 N2          2.0265   -0.7964   -3.6066 N.pl3     1 <0>        -0.4250
      7 C5          2.8368   -1.1485   -4.6200 C.2       1 <0>         0.1615
      8 C6          4.0188   -1.5790   -4.1069 C.2       1 <0>        -0.7647
      9 C7          3.9414   -1.4904   -2.7089 C.2       1 <0>        -0.0078
     10 C8          2.7036   -1.0040   -2.4122 C.2       1 <0>        -0.0658
     11 C9          2.0664   -0.6973   -1.1255 C.2       1 <0>         0.5970
     12 O1          2.7059   -0.6344   -0.0920 O.2       1 <0>        -0.5080
     13 S1          5.4045   -2.1493   -5.0339 S.o2      1 <0>         2.7180
     14 O2          6.1546   -2.9896   -4.1676 O.2       1 <0>        -0.9513
     15 O3          4.8996   -2.5998   -6.2834 O.2       1 <0>        -0.9586
     16 N3          6.3547   -0.8315   -5.3547 N.pl3     1 <0>        -0.9962
     17 C10         6.1425   -0.0347   -6.5713 C.3       1 <0>         0.1045
     18 C11         5.9267    1.4289   -6.1670 C.3       1 <0>         0.1063
     19 N4          6.9970    1.8228   -5.2400 N.pl3     1 <0>        -0.6225
     20 C12         7.2092    1.0260   -4.0235 C.3       1 <0>         0.1037
     21 C13         7.4214   -0.4343   -4.4250 C.3       1 <0>         0.1053
     22 C14         7.7984    2.9343   -5.5106 C.ar      1 <0>         0.2332
     23 C15         7.6660    3.6109   -6.7169 C.ar      1 <0>        -0.1972
     24 C16         8.4592    4.7097   -6.9818 C.ar      1 <0>        -0.0567
     25 C17         9.3855    5.1372   -6.0482 C.ar      1 <0>        -0.1714
     26 C18         9.5205    4.4660   -4.8456 C.ar      1 <0>         0.0168
     27 C19         8.7252    3.3688   -4.5722 C.ar      1 <0>        -0.1945
     28 Cl1        10.6850    5.0060   -3.6768 Cl        1 <0>        -0.0702
     29 H1          1.0636    1.8765    0.0705 H         1 <0>         0.0587
     30 H2         -0.4960    1.8716   -0.7874 H         1 <0>         0.0552
     31 H3         -0.4590    1.8475    0.9920 H         1 <0>         0.0723
     32 H4          0.5926   -0.3975    0.9397 H         1 <0>         0.0913
     33 H5         -0.9670   -0.4024    0.0819 H         1 <0>         0.0820
     34 H6         -0.2988   -1.7761   -2.4306 H         1 <0>         0.0778
     35 H7         -0.9979   -0.1564   -2.2686 H         1 <0>         0.1089
     36 H8          0.1312   -0.6663   -4.4979 H         1 <0>         0.1188
     37 H9          0.6826    0.8137   -3.6744 H         1 <0>         0.0988
     38 H10         2.5887   -1.0974   -5.6699 H         1 <0>         0.1883
     39 H11         4.7145   -1.7565   -2.0033 H         1 <0>         0.1641
     40 H12         7.0182   -0.1109   -7.2158 H         1 <0>         0.0823
     41 H13         5.2629   -0.4017   -7.1001 H         1 <0>         0.1018
     42 H14         5.9593    2.0620   -7.0537 H         1 <0>         0.0970
     43 H15         4.9597    1.5338   -5.6750 H         1 <0>         0.0679
     44 H16         8.0888    1.3930   -3.4947 H         1 <0>         0.0969
     45 H17         6.3335    1.1022   -3.3789 H         1 <0>         0.0713
     46 H18         7.3861   -1.0651   -3.5368 H         1 <0>         0.1047
     47 H19         8.3902   -0.5396   -4.9132 H         1 <0>         0.0817
     48 H20         6.9434    3.2775   -7.4470 H         1 <0>         0.1288
     49 H21         8.3563    5.2357   -7.9194 H         1 <0>         0.1312
     50 H22        10.0051    5.9965   -6.2582 H         1 <0>         0.1294
     51 H23         8.8275    2.8477   -3.6318 H         1 <0>         0.1337
@<TRIPOS>BOND
     1    1    2 1
     2    1   29 1
     3    1   30 1
     4    1   31 1
     5    2    3 1
     6    2   32 1
     7    2   33 1
     8    3   11 am
     9    3    4 1
    10    4    5 1
    11    4   34 1
    12    4   35 1
    13    5    6 1
    14    5   36 1
    15    5   37 1
    16    6   10 1
    17    6    7 1
    18    7    8 2
    19    7   38 1
    20    8    9 1
    21    8   13 1
    22    9   10 2
    23    9   39 1
    24   10   11 1
    25   11   12 2
    26   13   14 2
    27   13   15 2
    28   13   16 1
    29   16   21 1
    30   16   17 1
    31   17   18 1
    32   17   40 1
    33   17   41 1
    34   18   19 1
    35   18   42 1
    36   18   43 1
    37   19   20 1
    38   19   22 1
    39   20   21 1
    40   20   44 1
    41   20   45 1
    42   21   46 1
    43   21   47 1
    44   22   27 ar
    45   22   23 ar
    46   23   24 ar
    47   23   48 1
    48   24   25 ar
    49   24   49 1
    50   25   26 ar
    51   25   50 1
    52   26   27 ar
    53   26   28 1
    54   27   51 1
@<TRIPOS>MOLECULE
ZINC20308152
   50    54     0     0     0
SMALL
USER_CHARGES
(1S)-7-fluoro-2-(2-morpholinoethyl)-1-(3-pyridyl)-1H-chromeno[2,3-c]pyrrole-3,9-dione
@<TRIPOS>ATOM
      1 C1          0.0021   -0.0041    0.0020 C.ar      1 <0>        -0.1682
      2 C2          1.2220   -0.6632   -0.0132 C.ar      1 <0>        -0.0417
      3 C3          2.3820    0.0958   -0.0203 C.ar      1 <0>        -0.1581
      4 C4          2.2848    1.4746   -0.0119 C.ar      1 <0>         0.1209
      5 N1          1.1073    2.0676    0.0026 N.ar      1 <0>        -0.4808
      6 C5         -0.0167    1.3776    0.0096 C.ar      1 <0>         0.1082
      7 C6          3.7320   -0.5739   -0.0373 C.3       1 <0>         0.2369
      8 H1          3.6112   -1.5999    0.3405 H         1 <0>         0.1262
      9 C7          4.3080   -0.5450   -1.4290 C.2       1 <0>        -0.2526
     10 C8          3.8489   -1.1002   -2.7052 C.2       1 <0>         0.4514
     11 O1          2.8099   -1.7306   -2.7916 O.2       1 <0>        -0.4335
     12 C9          4.7079   -0.8571   -3.8808 C.ar      1 <0>        -0.1930
     13 C10         4.3656   -1.3399   -5.1429 C.ar      1 <0>        -0.0616
     14 C11         5.1973   -1.0896   -6.2145 C.ar      1 <0>         0.0781
     15 C12         6.3676   -0.3611   -6.0347 C.ar      1 <0>        -0.0819
     16 C13         6.7144    0.1204   -4.7918 C.ar      1 <0>        -0.1043
     17 C14         5.8903   -0.1203   -3.6960 C.ar      1 <0>         0.1479
     18 O2          6.2199    0.3457   -2.4773 O.3       1 <0>        -0.1940
     19 C15         5.4702    0.1507   -1.3748 C.2       1 <0>         0.1073
     20 C16         5.6863    0.5899    0.0265 C.2       1 <0>         0.5748
     21 O3          6.6397    1.2363    0.4129 O.2       1 <0>        -0.4782
     22 N2          4.6758    0.1692    0.8066 N.am      1 <0>        -0.5882
     23 C17         4.5397    0.4105    2.2452 C.3       1 <0>         0.1399
     24 C18         5.2101   -0.7267    3.0186 C.3       1 <0>         0.0348
     25 N3          5.0737   -0.4848    4.4611 N.3       1 <0>        -0.5324
     26 C19         5.8354    0.7042    4.8703 C.3       1 <0>         0.0096
     27 C20         5.6179    0.9535    6.3651 C.3       1 <0>         0.0616
     28 O4          6.0002   -0.2132    7.0985 O.3       1 <0>        -0.3838
     29 C21         5.2777   -1.3899    6.7259 C.3       1 <0>         0.0617
     30 C22         5.4918   -1.6630    5.2348 C.3       1 <0>         0.0177
     31 F1          4.8741   -1.5539   -7.4414 F         1 <0>        -0.1263
     32 H2         -0.9217   -0.5635    0.0075 H         1 <0>         0.1414
     33 H3          1.2673   -1.7423   -0.0198 H         1 <0>         0.1405
     34 H4          3.1838    2.0730   -0.0170 H         1 <0>         0.1469
     35 H5         -0.9627    1.8985    0.0169 H         1 <0>         0.1601
     36 H6          3.4559   -1.9054   -5.2807 H         1 <0>         0.1590
     37 H7          7.0124   -0.1702   -6.8798 H         1 <0>         0.1596
     38 H8          7.6264    0.6852   -4.6672 H         1 <0>         0.1608
     39 H9          5.0222    1.3645    2.5042 H         1 <0>         0.0978
     40 H10         3.4730    0.4553    2.5102 H         1 <0>         0.1037
     41 H11         4.7276   -1.6806    2.7595 H         1 <0>         0.0842
     42 H12         6.2767   -0.7715    2.7535 H         1 <0>         0.0466
     43 H13         6.9054    0.5389    4.6761 H         1 <0>         0.0486
     44 H14         5.4892    1.5767    4.2969 H         1 <0>         0.0900
     45 H15         6.2305    1.8085    6.6872 H         1 <0>         0.1017
     46 H16         4.5560    1.1732    6.5495 H         1 <0>         0.0620
     47 H17         5.6423   -2.2454    7.3134 H         1 <0>         0.1013
     48 H18         4.2059   -1.2399    6.9230 H         1 <0>         0.0620
     49 H19         4.8925   -2.5335    4.9297 H         1 <0>         0.0891
     50 H20         6.5563   -1.8665    5.0465 H         1 <0>         0.0463
@<TRIPOS>BOND
     1    1    6 ar
     2    1    2 ar
     3    1   32 1
     4    2    3 ar
     5    2   33 1
     6    3    4 ar
     7    3    7 1
     8    4    5 ar
     9    4   34 1
    10    5    6 ar
    11    6   35 1
    12    7    8 1
    13    7   22 1
    14    7    9 1
    15    9   19 2
    16    9   10 1
    17   10   11 2
    18   10   12 1
    19   12   17 ar
    20   12   13 ar
    21   13   14 ar
    22   13   36 1
    23   14   15 ar
    24   14   31 1
    25   15   16 ar
    26   15   37 1
    27   16   17 ar
    28   16   38 1
    29   17   18 1
    30   18   19 1
    31   19   20 1
    32   20   21 2
    33   20   22 am
    34   22   23 1
    35   23   24 1
    36   23   39 1
    37   23   40 1
    38   24   25 1
    39   24   41 1
    40   24   42 1
    41   25   30 1
    42   25   26 1
    43   26   27 1
    44   26   43 1
    45   26   44 1
    46   27   28 1
    47   27   45 1
    48   27   46 1
    49   28   29 1
    50   29   30 1
    51   29   47 1
    52   29   48 1
    53   30   49 1
    54   30   50 1
@<TRIPOS>MOLECULE
ZINC23223958
   42    44     0     0     0
SMALL
USER_CHARGES
5-acetyl-6-methyl-2-[2-(1,1,3-trioxo-1,2-benzothiazol-2-yl)ethylsulfanyl]pyridine-3-carbonitrile
@<TRIPOS>ATOM
      1 C1         -1.1915   -0.9313    0.0998 C.3       1 <0>        -0.1798
      2 C2          0.0539   -0.0844    0.0453 C.ar      1 <0>         0.2468
      3 C3          1.2853   -0.6857   -0.2481 C.ar      1 <0>        -0.2423
      4 C4          2.4396    0.1094   -0.2974 C.ar      1 <0>         0.0439
      5 C5          2.3103    1.4750   -0.0503 C.ar      1 <0>        -0.0825
      6 C6          1.0336    1.9984    0.2371 C.ar      1 <0>         0.1917
      7 N1         -0.0310    1.2073    0.2731 N.ar      1 <0>        -0.4974
      8 S1          0.8493    3.7222    0.5523 S.3       1 <0>        -0.0037
      9 C7         -0.9351    3.7991    0.8455 C.3       1 <0>        -0.1463
     10 C8         -1.3403    5.2429    1.1489 C.3       1 <0>         0.1499
     11 N2         -2.7847    5.3052    1.3861 N.am      1 <0>        -0.9177
     12 C9         -3.4283    5.0761    2.5408 C.2       1 <0>         0.5369
     13 O1         -2.8167    4.7789    3.5484 O.2       1 <0>        -0.4570
     14 C10        -4.8926    5.1948    2.5541 C.ar      1 <0>        -0.1151
     15 C11        -5.8045    5.0132    3.6081 C.ar      1 <0>        -0.0347
     16 C12        -7.1540    5.1779    3.3958 C.ar      1 <0>        -0.0792
     17 C13        -7.6410    5.5241    2.1476 C.ar      1 <0>        -0.0910
     18 C14        -6.7558    5.7076    1.0953 C.ar      1 <0>         0.0064
     19 C15        -5.4153    5.5449    1.3022 C.ar      1 <0>        -0.6164
     20 S2         -3.9775    5.6839    0.2759 S.o2      1 <0>         2.6524
     21 O2         -3.8240    7.0529   -0.0729 O.2       1 <0>        -0.9153
     22 O3         -4.0279    4.6331   -0.6794 O.2       1 <0>        -0.9139
     23 C16         3.4565    2.3327   -0.0876 C.1       1 <0>         0.2477
     24 N3          4.3657    3.0130   -0.1171 N.1       1 <0>        -0.3813
     25 C17         1.3661   -2.1296   -0.5000 C.2       1 <0>         0.4099
     26 O4          0.3518   -2.7919   -0.5637 O.2       1 <0>        -0.4366
     27 C18         2.7091   -2.7892   -0.6795 C.3       1 <0>        -0.2059
     28 H1         -0.9324   -1.9786   -0.1147 H         1 <0>         0.1497
     29 H2         -1.9127   -0.5713   -0.6487 H         1 <0>         0.0873
     30 H3         -1.6383   -0.8621    1.1026 H         1 <0>         0.0829
     31 H4          3.4029   -0.3249   -0.5205 H         1 <0>         0.1616
     32 H5         -1.4692    3.4488   -0.0500 H         1 <0>         0.1170
     33 H6         -1.1941    3.1581    1.7011 H         1 <0>         0.1160
     34 H7         -0.8062    5.5931    2.0445 H         1 <0>         0.1160
     35 H8         -1.0812    5.8840    0.2934 H         1 <0>         0.1117
     36 H9         -5.4442    4.7429    4.5897 H         1 <0>         0.1482
     37 H10        -7.8431    5.0351    4.2151 H         1 <0>         0.1486
     38 H11        -8.7025    5.6501    1.9937 H         1 <0>         0.1509
     39 H12        -7.1247    5.9782    0.1170 H         1 <0>         0.1481
     40 H13         2.5681   -3.8655   -0.8573 H         1 <0>         0.0942
     41 H14         3.3133   -2.6436    0.2281 H         1 <0>         0.0993
     42 H15         3.2261   -2.3399   -1.5402 H         1 <0>         0.0990
@<TRIPOS>BOND
     1    1    2 1
     2    1   28 1
     3    1   29 1
     4    1   30 1
     5    2    7 ar
     6    2    3 ar
     7    3    4 ar
     8    3   25 1
     9    4    5 ar
    10    4   31 1
    11    5    6 ar
    12    5   23 1
    13    6    7 ar
    14    6    8 1
    15    8    9 1
    16    9   10 1
    17    9   32 1
    18    9   33 1
    19   10   11 1
    20   10   34 1
    21   10   35 1
    22   11   20 1
    23   11   12 am
    24   12   13 2
    25   12   14 1
    26   14   19 ar
    27   14   15 ar
    28   15   16 ar
    29   15   36 1
    30   16   17 ar
    31   16   37 1
    32   17   18 ar
    33   17   38 1
    34   18   19 ar
    35   18   39 1
    36   19   20 1
    37   20   21 2
    38   20   22 2
    39   23   24 3
    40   25   26 2
    41   25   27 1
    42   27   40 1
    43   27   41 1
    44   27   42 1
@<TRIPOS>MOLECULE
ZINC16571090
   52    55     0     0     0
SMALL
USER_CHARGES

@<TRIPOS>ATOM
      1 C1         -0.0187    1.5258    0.0104 C.3       1 <0>        -0.1498
      2 C2          0.0021   -0.0041    0.0020 C.3       1 <0>        -0.1414
      3 C3          0.7182   -0.4975   -1.2568 C.3       1 <0>         0.1082
      4 N1          0.7381   -1.9623   -1.2648 N.am      1 <0>        -0.5747
      5 C4          1.7074   -2.7183   -0.7213 C.2       1 <0>         0.5332
      6 O1          2.6955   -2.3034   -0.1509 O.2       1 <0>        -0.3997
      7 C5          1.3647   -4.1462   -0.9359 C.2       1 <0>         0.2217
      8 C6          0.1606   -4.1518   -1.6236 C.2       1 <0>        -0.1439
      9 C7         -0.2130   -2.7380   -1.8115 C.2       1 <0>         0.5870
     10 O2         -1.2154   -2.3397   -2.3713 O.2       1 <0>        -0.4586
     11 N2         -0.5444   -5.2526   -2.0413 N.ar      1 <0>        -0.2380
     12 C8         -0.0117   -6.0558   -2.9548 C.ar      1 <0>         0.1574
     13 C9         -0.6939   -7.1703   -3.3959 C.ar      1 <0>        -0.1324
     14 C10        -1.9498   -7.4477   -2.8736 C.ar      1 <0>         0.0390
     15 C11        -2.4775   -6.5880   -1.9200 C.ar      1 <0>        -0.1345
     16 C12        -1.7412   -5.4931   -1.5186 C.ar      1 <0>         0.1393
     17 C13        -2.7242   -8.6563   -3.3326 C.3       1 <0>        -0.1377
     18 C14         2.1435   -5.3169   -0.5067 C.2       1 <0>        -0.4642
     19 C15         2.0212   -6.0039    0.7239 C.2       1 <0>         0.1528
     20 N3          2.8814   -6.9838    0.7313 N.2       1 <0>        -0.3245
     21 N4          3.5927   -6.9819   -0.4733 N.pl3     1 <0>        -0.3751
     22 C16         3.1380   -5.9641   -1.2372 C.2       1 <0>         0.4674
     23 O3          3.5694   -5.6337   -2.4771 O.3       1 <0>        -0.6741
     24 C17         4.6024   -7.8860   -0.8299 C.ar      1 <0>         0.2011
     25 C18         4.7411   -8.2879   -2.1520 C.ar      1 <0>        -0.1176
     26 C19         5.7368   -9.1790   -2.5009 C.ar      1 <0>        -0.0899
     27 C20         6.5955   -9.6718   -1.5355 C.ar      1 <0>        -0.1290
     28 C21         6.4600   -9.2738   -0.2172 C.ar      1 <0>        -0.0183
     29 C22         5.4692   -8.3769    0.1367 C.ar      1 <0>        -0.1198
     30 Cl1         7.5397   -9.8953    0.9919 Cl        1 <0>        -0.0689
     31 C23         1.0624   -5.6619    1.8351 C.3       1 <0>        -0.0757
     32 H1          1.0039    1.9031    0.0027 H         1 <0>         0.0612
     33 H2         -0.5459    1.8868   -0.8726 H         1 <0>         0.0598
     34 H3         -0.5289    1.8773    0.9072 H         1 <0>         0.0642
     35 H4          0.5293   -0.3651    0.8851 H         1 <0>         0.0716
     36 H5         -1.0205   -0.3814    0.0098 H         1 <0>         0.0694
     37 H6          0.1910   -0.1364   -2.1398 H         1 <0>         0.1011
     38 H7          1.7408   -0.1202   -1.2645 H         1 <0>         0.1029
     39 H8          0.9658   -5.8339   -3.3568 H         1 <0>         0.2076
     40 H9         -0.2562   -7.8197   -4.1396 H         1 <0>         0.1836
     41 H10        -3.4522   -6.7763   -1.4948 H         1 <0>         0.1837
     42 H11        -2.1440   -4.8220   -0.7744 H         1 <0>         0.1997
     43 H12        -2.4775   -9.5081   -2.6988 H         1 <0>         0.1042
     44 H13        -3.7925   -8.4505   -3.2651 H         1 <0>         0.0922
     45 H14        -2.4627   -8.8845   -4.3659 H         1 <0>         0.0925
     46 H15         4.0706   -7.9042   -2.9066 H         1 <0>         0.1398
     47 H16         5.8448   -9.4916   -3.5291 H         1 <0>         0.1364
     48 H17         7.3732  -10.3688   -1.8110 H         1 <0>         0.1342
     49 H18         5.3667   -8.0624    1.1648 H         1 <0>         0.1389
     50 H19         0.1266   -6.2006    1.6862 H         1 <0>         0.0711
     51 H20         1.4983   -5.9484    2.7922 H         1 <0>         0.0804
     52 H21         0.8688   -4.5892    1.8306 H         1 <0>         0.0661
@<TRIPOS>BOND
     1    1    2 1
     2    1   32 1
     3    1   33 1
     4    1   34 1
     5    2    3 1
     6    2   35 1
     7    2   36 1
     8    3    4 1
     9    3   37 1
    10    3   38 1
    11    4    9 am
    12    4    5 am
    13    5    6 2
    14    5    7 1
    15    7    8 2
    16    7   18 1
    17    8    9 1
    18    8   11 1
    19    9   10 2
    20   11   16 ar
    21   11   12 ar
    22   12   13 ar
    23   12   39 1
    24   13   14 ar
    25   13   40 1
    26   14   15 ar
    27   14   17 1
    28   15   16 ar
    29   15   41 1
    30   16   42 1
    31   17   43 1
    32   17   44 1
    33   17   45 1
    34   18   22 2
    35   18   19 1
    36   19   20 2
    37   19   31 1
    38   20   21 1
    39   21   22 1
    40   21   24 1
    41   22   23 1
    42   24   29 ar
    43   24   25 ar
    44   25   26 ar
    45   25   46 1
    46   26   27 ar
    47   26   47 1
    48   27   28 ar
    49   27   48 1
    50   28   29 ar
    51   28   30 1
    52   29   49 1
    53   31   50 1
    54   31   51 1
    55   31   52 1
@<TRIPOS>MOLECULE
ZINC45521096
   47    50     0     0     0
SMALL
USER_CHARGES

@<TRIPOS>ATOM
      1 C1         -0.0163    1.3513    0.0095 C.2       1 <0>        -0.1573
      2 C2          1.1833    2.0380    0.0017 C.2       1 <0>        -0.1391
      3 C3          2.3426    1.3358   -0.0131 C.2       1 <0>        -0.1369
      4 S1          1.7535   -0.3495   -0.0166 S.3       1 <0>         0.0261
      5 C4          0.0021   -0.0041    0.0020 C.2       1 <0>        -0.1701
      6 C5          3.7608    1.8454   -0.0244 C.3       1 <0>         0.1392
      7 N1          4.2350    2.0040    1.3569 N.3       1 <0>        -0.5343
      8 C6          4.3401    0.7021    2.0304 C.3       1 <0>         0.0518
      9 C7          4.7595    0.9164    3.4866 C.3       1 <0>         0.0660
     10 N2          6.0433    1.6306    3.5239 N.3       1 <0>        -0.5584
     11 C8          5.9383    2.9325    2.8504 C.3       1 <0>         0.0577
     12 C9          5.5189    2.7181    1.3942 C.3       1 <0>         0.0588
     13 C10         6.5176    1.7891    4.9052 C.3       1 <0>         0.2888
     14 N3          7.9755    1.9331    4.9074 N.am      1 <0>        -0.5659
     15 C11         8.8648    0.9200    4.9909 C.2       1 <0>         0.5146
     16 O1          8.6223   -0.2653    5.0776 O.2       1 <0>        -0.4002
     17 C12        10.2156    1.5706    4.9538 C.2       1 <0>         0.5059
     18 O2         11.2967    1.0229    5.0041 O.2       1 <0>        -0.4004
     19 N4          9.9737    2.8955    4.8525 N.am      1 <0>        -0.5723
     20 C13         8.6459    3.0933    4.8209 C.2       1 <0>         0.7134
     21 O3          8.1182    4.1836    4.7287 O.2       1 <0>        -0.4847
     22 C14        10.9934    3.9451    4.7831 C.3       1 <0>         0.2111
     23 C15        11.3553    4.1994    3.3424 C.2       1 <0>        -0.1990
     24 C16        10.8080    5.0777    2.4671 C.2       1 <0>        -0.1158
     25 C17        11.3073    5.1401    1.1796 C.2       1 <0>        -0.1666
     26 C18        12.3294    4.3212    0.8305 C.2       1 <0>        -0.1581
     27 S2         12.6214    3.4275    2.3482 S.3       1 <0>         0.0630
     28 H1         -0.9542    1.8866    0.0258 H         1 <0>         0.1339
     29 H2          1.1967    3.1179    0.0070 H         1 <0>         0.1333
     30 H3         -0.8275   -0.6955    0.0065 H         1 <0>         0.1852
     31 H4          4.3986    1.1333   -0.5480 H         1 <0>         0.0526
     32 H5          3.7967    2.8084   -0.5337 H         1 <0>         0.0992
     33 H6          3.3740    0.1982    2.0006 H         1 <0>         0.0887
     34 H7          5.0858    0.0896    1.5236 H         1 <0>         0.0461
     35 H8          4.0004    1.5060    4.0007 H         1 <0>         0.0535
     36 H9          4.8662   -0.0495    3.9803 H         1 <0>         0.0881
     37 H10         5.1925    3.5449    3.3572 H         1 <0>         0.0540
     38 H11         6.9044    3.4363    2.8802 H         1 <0>         0.0833
     39 H12         6.2780    2.1285    0.8801 H         1 <0>         0.0444
     40 H13         5.4122    3.6840    0.9005 H         1 <0>         0.0851
     41 H14         6.0642    2.6773    5.3453 H         1 <0>         0.0892
     42 H15         6.2383    0.9116    5.4882 H         1 <0>         0.1160
     43 H16        10.6030    4.8610    5.2267 H         1 <0>         0.1270
     44 H17        11.8809    3.6262    5.3298 H         1 <0>         0.1179
     45 H18         9.9938    5.7189    2.7708 H         1 <0>         0.1386
     46 H19        10.8890    5.8309    0.4625 H         1 <0>         0.1374
     47 H20        12.8380    4.2347   -0.1183 H         1 <0>         0.1887
@<TRIPOS>BOND
     1    1    5 2
     2    1    2 1
     3    1   28 1
     4    2    3 2
     5    2   29 1
     6    3    4 1
     7    3    6 1
     8    4    5 1
     9    5   30 1
    10    6    7 1
    11    6   31 1
    12    6   32 1
    13    7   12 1
    14    7    8 1
    15    8    9 1
    16    8   33 1
    17    8   34 1
    18    9   10 1
    19    9   35 1
    20    9   36 1
    21   10   11 1
    22   10   13 1
    23   11   12 1
    24   11   37 1
    25   11   38 1
    26   12   39 1
    27   12   40 1
    28   13   14 1
    29   13   41 1
    30   13   42 1
    31   14   20 am
    32   14   15 am
    33   15   16 2
    34   15   17 1
    35   17   18 2
    36   17   19 am
    37   19   20 am
    38   19   22 1
    39   20   21 2
    40   22   23 1
    41   22   43 1
    42   22   44 1
    43   23   27 1
    44   23   24 2
    45   24   25 1
    46   24   45 1
    47   25   26 2
    48   25   46 1
    49   26   27 1
    50   26   47 1
@<TRIPOS>MOLECULE
ZINC67612927
   43    46     0     0     0
SMALL
USER_CHARGES

@<TRIPOS>ATOM
      1 C1          1.1000   -0.4264    0.8283 C.ar      1 <0>        -0.1169
      2 C2          2.2905    0.2703    0.7922 C.ar      1 <0>        -0.0848
      3 C3          2.3946    1.4293    0.0217 C.ar      1 <0>        -0.1280
      4 C4          1.2920    1.8763   -0.7083 C.ar      1 <0>        -0.0344
      5 C5          0.1068    1.1703   -0.6638 C.ar      1 <0>        -0.0969
      6 C6          0.0107    0.0213    0.1029 C.ar      1 <0>        -0.0647
      7 Br1        -1.3886    1.7734   -1.6516 Br        1 <0>        -0.0346
      8 C7          3.6672    2.1806   -0.0209 C.2       1 <0>         0.5649
      9 O1          3.6550    3.3908   -0.1343 O.2       1 <0>        -0.5218
     10 N1          4.8408    1.5238    0.0662 N.am      1 <0>        -0.6087
     11 C8          4.8767    0.0546    0.0766 C.3       1 <0>         0.0738
     12 C9          5.7995   -0.4211   -1.0523 C.3       1 <0>         0.1028
     13 N2          7.0664    0.3190   -0.9666 N.pl3     1 <0>        -0.5926
     14 C10         7.0304    1.7882   -0.9770 C.3       1 <0>         0.1079
     15 C11         6.1080    2.2638    0.1463 C.3       1 <0>         0.0978
     16 C12         8.2732   -0.3565   -0.8771 C.ar      1 <0>         0.4665
     17 C13         8.3320   -1.7316   -1.0955 C.ar      1 <0>        -0.3073
     18 C14         9.5654   -2.3616   -0.9945 C.ar      1 <0>         0.4287
     19 N3         10.6396   -1.6356   -0.6951 N.ar      1 <0>        -0.5762
     20 C15        10.5446   -0.3371   -0.4955 C.ar      1 <0>         0.3784
     21 N4          9.3943    0.2992   -0.5868 N.ar      1 <0>        -0.5815
     22 N5          9.6768   -3.7375   -1.2038 N.pl3     1 <0>        -0.4156
     23 C16        10.8058   -4.4995   -1.0376 C.2       1 <0>        -0.0208
     24 C17        10.4698   -5.7660   -1.3453 C.2       1 <0>        -0.0258
     25 N6          9.1735   -5.7842   -1.6906 N.2       1 <0>        -0.4722
     26 C18         8.6856   -4.5773   -1.6052 C.2       1 <0>         0.1971
     27 H1          1.0200   -1.3258    1.4208 H         1 <0>         0.1425
     28 H2          3.1400   -0.0803    1.3595 H         1 <0>         0.1426
     29 H3          1.3661    2.7726   -1.3062 H         1 <0>         0.1441
     30 H4         -0.9187   -0.5280    0.1344 H         1 <0>         0.1408
     31 H5          5.2607   -0.2952    1.0349 H         1 <0>         0.0817
     32 H6          3.8721   -0.3370   -0.0827 H         1 <0>         0.1173
     33 H7          5.9913   -1.4885   -0.9428 H         1 <0>         0.1003
     34 H8          5.3279   -0.2286   -2.0160 H         1 <0>         0.0831
     35 H9          8.0351    2.1798   -0.8177 H         1 <0>         0.1151
     36 H10         6.6464    2.1380   -1.9353 H         1 <0>         0.0749
     37 H11         5.9163    3.3308    0.0330 H         1 <0>         0.1100
     38 H12         6.5817    2.0750    1.1096 H         1 <0>         0.0778
     39 H13         7.4413   -2.2928   -1.3367 H         1 <0>         0.1492
     40 H14        11.4359    0.2229   -0.2540 H         1 <0>         0.2084
     41 H15        11.7776   -4.1500   -0.7213 H         1 <0>         0.1857
     42 H16        11.1301   -6.6203   -1.3191 H         1 <0>         0.1800
     43 H17         7.6661   -4.2926   -1.8196 H         1 <0>         0.2115
@<TRIPOS>BOND
     1    1    6 ar
     2    1    2 ar
     3    1   27 1
     4    2    3 ar
     5    2   28 1
     6    3    4 ar
     7    3    8 1
     8    4    5 ar
     9    4   29 1
    10    5    6 ar
    11    5    7 1
    12    6   30 1
    13    8    9 2
    14    8   10 am
    15   10   15 1
    16   10   11 1
    17   11   12 1
    18   11   31 1
    19   11   32 1
    20   12   13 1
    21   12   33 1
    22   12   34 1
    23   13   14 1
    24   13   16 1
    25   14   15 1
    26   14   35 1
    27   14   36 1
    28   15   37 1
    29   15   38 1
    30   16   21 ar
    31   16   17 ar
    32   17   18 ar
    33   17   39 1
    34   18   19 ar
    35   18   22 1
    36   19   20 ar
    37   20   21 ar
    38   20   40 1
    39   22   26 1
    40   22   23 1
    41   23   24 2
    42   23   41 1
    43   24   25 1
    44   24   42 1
    45   25   26 2
    46   26   43 1
@<TRIPOS>MOLECULE
ZINC14356618
   49    53     0     0     0
SMALL
USER_CHARGES
(3Z)-3-[3-[(3S)-1,1-dioxothiolan-3-yl]-4-oxo-2-thioxo-thiazolidin-5-ylidene]-1-[(2-fluorophenyl)methyl]indolin-2-one
@<TRIPOS>ATOM
      1 C1          1.4038   -0.5899    0.0976 C.ar      1 <0>        -0.1297
      2 C2          2.5593    0.1694    0.0859 C.ar      1 <0>        -0.0792
      3 C3          2.4800    1.5487    0.0633 C.ar      1 <0>        -0.1554
      4 C4          1.2428    2.1706    0.0532 C.ar      1 <0>         0.1145
      5 C5          0.0865    1.4093    0.0644 C.ar      1 <0>        -0.1577
      6 C6          0.1683    0.0297    0.0866 C.ar      1 <0>        -0.0666
      7 C7         -1.2607    2.0844    0.0462 C.3       1 <0>         0.1575
      8 N1         -1.5446    2.6437    1.3701 N.am      1 <0>        -0.5392
      9 C8         -1.1977    3.9297    1.7684 C.ar      1 <0>         0.1707
     10 C9         -0.5471    4.9602    1.0996 C.ar      1 <0>        -0.1397
     11 C10        -0.3212    6.1650    1.7348 C.ar      1 <0>        -0.0523
     12 C11        -0.7373    6.3637    3.0410 C.ar      1 <0>        -0.1492
     13 C12        -1.3853    5.3534    3.7220 C.ar      1 <0>        -0.0365
     14 C13        -1.6181    4.1343    3.0906 C.ar      1 <0>        -0.1457
     15 C14        -2.2667    2.8786    3.5221 C.2       1 <0>         0.0469
     16 C15        -2.8364    2.6056    4.7506 C.2       1 <0>        -0.1676
     17 C16        -2.8142    3.4048    6.0061 C.2       1 <0>         0.5495
     18 O1         -2.2391    4.4732    6.0762 O.2       1 <0>        -0.4366
     19 N2         -3.4591    2.8901    7.0397 N.am      1 <0>        -0.5125
     20 C17        -4.0892    1.7013    6.9587 C.2       1 <0>         0.2425
     21 S1         -4.9612    0.8775    8.1802 S.2       1 <0>        -0.2826
     22 S2         -3.7969    1.1913    5.2729 S.3       1 <0>         0.1418
     23 C18        -3.4830    3.6266    8.3059 C.3       1 <0>         0.1216
     24 H1         -2.9255    4.5566    8.1940 H         1 <0>         0.1427
     25 C19        -4.9390    3.9479    8.6821 C.3       1 <0>        -0.1589
     26 C20        -4.9605    4.4407   10.1573 C.3       1 <0>        -0.5641
     27 S3         -3.7538    3.2755   10.9196 S.o2      1 <0>         2.3841
     28 O2         -4.4567    2.1523   11.4329 O.2       1 <0>        -0.9062
     29 O3         -2.8818    4.0043   11.7727 O.2       1 <0>        -0.9290
     30 C21        -2.8294    2.7657    9.4136 C.3       1 <0>        -0.6156
     31 C22        -2.1786    1.9809    2.3524 C.2       1 <0>         0.5557
     32 O4         -2.6023    0.8420    2.2903 O.2       1 <0>        -0.4564
     33 F1          1.1641    3.5191    0.0311 F         1 <0>        -0.1296
     34 H2          1.4667   -1.6679    0.1149 H         1 <0>         0.1346
     35 H3          3.5241   -0.3158    0.0941 H         1 <0>         0.1364
     36 H4          3.3827    2.1416    0.0542 H         1 <0>         0.1388
     37 H5         -0.7336   -0.5644    0.0957 H         1 <0>         0.1378
     38 H6         -1.2557    2.8853   -0.6931 H         1 <0>         0.1057
     39 H7         -2.0288    1.3556   -0.2127 H         1 <0>         0.1119
     40 H8         -0.2170    4.8178    0.0812 H         1 <0>         0.1459
     41 H9          0.1850    6.9605    1.2081 H         1 <0>         0.1381
     42 H10        -0.5547    7.3107    3.5270 H         1 <0>         0.1367
     43 H11        -1.7101    5.5074    4.7404 H         1 <0>         0.1635
     44 H12        -5.3246    4.7293    8.0273 H         1 <0>         0.1088
     45 H13        -5.5508    3.0511    8.5846 H         1 <0>         0.1189
     46 H14        -5.9513    4.3255   10.5969 H         1 <0>         0.1532
     47 H15        -4.6155    5.4717   10.2343 H         1 <0>         0.1443
     48 H16        -2.9727    1.7040    9.2130 H         1 <0>         0.1569
     49 H17        -1.7698    3.0020    9.5120 H         1 <0>         0.1512
@<TRIPOS>BOND
     1    1    6 ar
     2    1    2 ar
     3    1   34 1
     4    2    3 ar
     5    2   35 1
     6    3    4 ar
     7    3   36 1
     8    4    5 ar
     9    4   33 1
    10    5    6 ar
    11    5    7 1
    12    6   37 1
    13    7    8 1
    14    7   38 1
    15    7   39 1
    16    8   31 am
    17    8    9 1
    18    9   14 ar
    19    9   10 ar
    20   10   11 ar
    21   10   40 1
    22   11   12 ar
    23   11   41 1
    24   12   13 ar
    25   12   42 1
    26   13   14 ar
    27   13   43 1
    28   14   15 1
    29   15   16 2
    30   15   31 1
    31   16   22 1
    32   16   17 1
    33   17   18 2
    34   17   19 am
    35   19   20 1
    36   19   23 1
    37   20   21 2
    38   20   22 1
    39   23   24 1
    40   23   30 1
    41   23   25 1
    42   25   26 1
    43   25   44 1
    44   25   45 1
    45   26   27 1
    46   26   46 1
    47   26   47 1
    48   27   28 2
    49   27   29 2
    50   27   30 1
    51   30   48 1
    52   30   49 1
    53   31   32 2
@<TRIPOS>MOLECULE
ZINC25061681
   61    65     0     0     0
SMALL
USER_CHARGES
(3S,7aS)-N-[[1-[(2-chlorophenyl)methyl]-3-phenyl-pyrazol-4-yl]methyl]-N,7a-dimethyl-5-oxo-2,3,6,7-tetrahydropyrrolo[2,1-b]thiazole-3-carboxamide
@<TRIPOS>ATOM
      1 C1         -0.4547   -6.3533   -1.5966 C.3       1 <0>        -0.1380
      2 C2         -1.4110   -6.7614   -0.4741 C.3       1 <0>         0.1733
      3 C3         -1.9979   -8.1700   -0.6673 C.3       1 <0>        -0.1169
      4 C4         -3.3350   -7.8471   -1.3758 C.3       1 <0>        -0.1395
      5 C5         -3.6630   -6.4416   -0.9284 C.2       1 <0>         0.5461
      6 O1         -4.7421   -5.9065   -1.0705 O.2       1 <0>        -0.4863
      7 N1         -2.5866   -5.8608   -0.3535 N.am      1 <0>        -0.6172
      8 C6         -2.2208   -4.6598    0.4329 C.3       1 <0>         0.1307
      9 H1         -1.6107   -4.0309   -0.2321 H         1 <0>         0.1086
     10 C7         -1.4144   -5.0275    1.7025 C.3       1 <0>        -0.0747
     11 S1         -0.6586   -6.6312    1.1986 S.3       1 <0>        -0.2514
     12 C8         -3.4761   -3.9308    0.8377 C.2       1 <0>         0.5112
     13 O2         -4.4973   -4.5511    1.0456 O.2       1 <0>        -0.4825
     14 N2         -3.4639   -2.5895    0.9688 N.am      1 <0>        -0.6144
     15 C9         -2.2567   -1.8314    0.6307 C.3       1 <0>         0.0697
     16 C10        -4.6578   -1.8895    1.4492 C.3       1 <0>         0.1971
     17 C11        -4.6538   -1.8656    2.9560 C.2       1 <0>        -0.2321
     18 C12        -3.6518   -2.2914    3.7556 C.2       1 <0>         0.0648
     19 N3         -4.0313   -2.0999    5.0374 N.pl3     1 <0>        -0.3627
     20 N4         -5.3170   -1.5440    5.0330 N.2       1 <0>        -0.2537
     21 C13        -5.6965   -1.4008    3.7809 C.2       1 <0>         0.1183
     22 C14        -6.9945   -0.8481    3.3196 C.ar      1 <0>        -0.0111
     23 C15        -7.0338    0.0452    2.2511 C.ar      1 <0>        -0.0995
     24 C16        -8.2440    0.5528    1.8235 C.ar      1 <0>        -0.1190
     25 C17        -9.4153    0.1840    2.4602 C.ar      1 <0>        -0.1128
     26 C18        -9.3815   -0.6987    3.5246 C.ar      1 <0>        -0.1189
     27 C19        -8.1773   -1.2161    3.9573 C.ar      1 <0>        -0.0897
     28 C20        -3.2384   -2.4229    6.2262 C.3       1 <0>         0.1720
     29 C21        -3.1093   -1.1964    7.0923 C.ar      1 <0>        -0.1072
     30 C22        -1.9951   -0.3859    6.9813 C.ar      1 <0>        -0.0880
     31 C23        -1.8785    0.7414    7.7726 C.ar      1 <0>        -0.1202
     32 C24        -2.8717    1.0538    8.6824 C.ar      1 <0>        -0.0947
     33 C25        -3.9836    0.2413    8.7980 C.ar      1 <0>        -0.1154
     34 C26        -4.1031   -0.8847    8.0027 C.ar      1 <0>        -0.0008
     35 Cl1        -5.4993   -1.9061    8.1478 Cl        1 <0>        -0.0498
     36 H2          0.3900   -7.0569   -1.6325 H         1 <0>         0.0854
     37 H3         -0.0780   -5.3375   -1.4061 H         1 <0>         0.0691
     38 H4         -0.9887   -6.3721   -2.5581 H         1 <0>         0.0759
     39 H5         -1.3123   -8.7717   -1.2820 H         1 <0>         0.1006
     40 H6         -2.1285   -8.6505    0.3135 H         1 <0>         0.0995
     41 H7         -3.1976   -7.9115   -2.4653 H         1 <0>         0.1134
     42 H8         -4.1015   -8.5700   -1.0596 H         1 <0>         0.1152
     43 H9         -0.6734   -4.2407    1.9068 H         1 <0>         0.1202
     44 H10        -2.0992   -5.1174    2.5586 H         1 <0>         0.1055
     45 H11        -2.4371   -0.7597    0.8008 H         1 <0>         0.0874
     46 H12        -2.0037   -1.9974   -0.4269 H         1 <0>         0.0651
     47 H13        -1.4229   -2.1680    1.2644 H         1 <0>         0.0609
     48 H14        -4.6573   -0.8584    1.0661 H         1 <0>         0.0881
     49 H15        -5.5576   -2.4125    1.0931 H         1 <0>         0.0938
     50 H16        -2.7117   -2.7096    3.4275 H         1 <0>         0.1630
     51 H17        -6.1195    0.3369    1.7560 H         1 <0>         0.1230
     52 H18        -8.2760    1.2426    0.9932 H         1 <0>         0.1258
     53 H19       -10.3596    0.5871    2.1253 H         1 <0>         0.1237
     54 H20       -10.2989   -0.9833    4.0182 H         1 <0>         0.1249
     55 H21        -8.1519   -1.9047    4.7890 H         1 <0>         0.1232
     56 H22        -3.7377   -3.2219    6.7940 H         1 <0>         0.1002
     57 H23        -2.2380   -2.7617    5.9188 H         1 <0>         0.1086
     58 H24        -1.2170   -0.6316    6.2737 H         1 <0>         0.1303
     59 H25        -1.0094    1.3763    7.6831 H         1 <0>         0.1316
     60 H26        -2.7783    1.9327    9.3030 H         1 <0>         0.1343
     61 H27        -4.7589    0.4850    9.5092 H         1 <0>         0.1359
@<TRIPOS>BOND
     1    1    2 1
     2    1   36 1
     3    1   37 1
     4    1   38 1
     5    2    7 1
     6    2   11 1
     7    2    3 1
     8    3    4 1
     9    3   39 1
    10    3   40 1
    11    4    5 1
    12    4   41 1
    13    4   42 1
    14    5    6 2
    15    5    7 am
    16    7    8 1
    17    8    9 1
    18    8   10 1
    19    8   12 1
    20   10   11 1
    21   10   43 1
    22   10   44 1
    23   12   13 2
    24   12   14 am
    25   14   15 1
    26   14   16 1
    27   15   45 1
    28   15   46 1
    29   15   47 1
    30   16   17 1
    31   16   48 1
    32   16   49 1
    33   17   21 1
    34   17   18 2
    35   18   19 1
    36   18   50 1
    37   19   20 1
    38   19   28 1
    39   20   21 2
    40   21   22 1
    41   22   27 ar
    42   22   23 ar
    43   23   24 ar
    44   23   51 1
    45   24   25 ar
    46   24   52 1
    47   25   26 ar
    48   25   53 1
    49   26   27 ar
    50   26   54 1
    51   27   55 1
    52   28   29 1
    53   28   56 1
    54   28   57 1
    55   29   34 ar
    56   29   30 ar
    57   30   31 ar
    58   30   58 1
    59   31   32 ar
    60   31   59 1
    61   32   33 ar
    62   32   60 1
    63   33   34 ar
    64   33   61 1
    65   34   35 1
@<TRIPOS>MOLECULE
ZINC23956061
   56    60     0     0     0
SMALL
USER_CHARGES

@<TRIPOS>ATOM
      1 C1          0.3097    0.8848    0.5166 C.3       1 <0>        -0.1617
      2 C2          0.2159   -0.6103    0.2050 C.3       1 <0>         0.1637
      3 C3          0.9648   -1.4028    1.2783 C.3       1 <0>        -0.1626
      4 N1         -1.1910   -1.0184    0.1891 N.pl3     1 <0>        -0.3781
      5 C4         -1.8562   -1.5693   -0.8753 C.ar      1 <0>         0.3210
      6 C5         -3.1772   -1.8004   -0.4408 C.ar      1 <0>        -0.1924
      7 C6         -3.2551   -1.3685    0.9004 C.2       1 <0>         0.0855
      8 N2         -2.0869   -0.9189    1.2602 N.2       1 <0>        -0.2267
      9 C7         -4.1033   -2.3710   -1.3416 C.ar      1 <0>         0.0037
     10 C8         -3.6571   -2.6784   -2.6252 C.ar      1 <0>        -0.1849
     11 C9         -2.3391   -2.4170   -2.9676 C.ar      1 <0>         0.2328
     12 N3         -1.4959   -1.8846   -2.1109 N.ar      1 <0>        -0.4841
     13 C10        -1.8611   -2.7518   -4.3571 C.3       1 <0>        -0.1148
     14 C11        -2.7237   -3.7009   -5.1914 C.3       1 <0>        -0.1688
     15 C12        -1.3909   -4.1844   -4.6164 C.3       1 <0>        -0.1569
     16 C13        -5.5006   -2.6341   -0.9356 C.2       1 <0>         0.5638
     17 O1         -5.7306   -3.2648    0.0777 O.2       1 <0>        -0.5176
     18 N4         -6.5192   -2.1746   -1.6890 N.am      1 <0>        -0.6039
     19 C14        -7.9146   -2.3428   -1.2556 C.3       1 <0>         0.1178
     20 C15        -8.6135   -0.9808   -1.3253 C.3       1 <0>         0.0412
     21 N5         -8.4448   -0.4157   -2.6707 N.3       1 <0>        -0.5314
     22 C16        -7.0288   -0.1632   -2.9690 C.3       1 <0>         0.0329
     23 C17        -6.2647   -1.4863   -2.9637 C.3       1 <0>         0.1029
     24 C18        -9.2429    0.8069   -2.8320 C.3       1 <0>         0.1363
     25 C19        -9.2423    1.2196   -4.2814 C.2       1 <0>        -0.1241
     26 C20       -10.1054    0.8741   -5.2674 C.2       1 <0>        -0.1383
     27 C21        -9.9078    1.3791   -6.5392 C.2       1 <0>        -0.1076
     28 C22        -8.8557    2.2055   -6.7619 C.2       1 <0>        -0.1751
     29 S1         -8.1088    2.2967   -5.1429 S.3       1 <0>         0.0873
     30 Br1        -8.3226    3.0484   -8.3685 Br        1 <0>         0.0392
     31 H1          1.3565    1.1884    0.5284 H         1 <0>         0.0784
     32 H2         -0.2238    1.4494   -0.2481 H         1 <0>         0.0596
     33 H3         -0.1367    1.0815    1.4913 H         1 <0>         0.0704
     34 H4          0.6624   -0.8070   -0.7697 H         1 <0>         0.1089
     35 H5          0.5184   -1.2061    2.2530 H         1 <0>         0.0706
     36 H6          0.8980   -2.4679    1.0564 H         1 <0>         0.0601
     37 H7          2.0116   -1.0991    1.2901 H         1 <0>         0.0784
     38 H8         -4.1350   -1.4084    1.5253 H         1 <0>         0.1963
     39 H9         -4.3311   -3.1164   -3.3465 H         1 <0>         0.1500
     40 H10        -1.3431   -1.9492   -4.8821 H         1 <0>         0.1288
     41 H11        -3.6369   -4.0832   -4.7353 H         1 <0>         0.1001
     42 H12        -2.7734   -3.5228   -6.2656 H         1 <0>         0.1074
     43 H13        -0.5637   -4.3244   -5.3123 H         1 <0>         0.1050
     44 H14        -1.4272   -4.8848   -3.7820 H         1 <0>         0.0966
     45 H15        -8.4204   -3.0480   -1.9150 H         1 <0>         0.0826
     46 H16        -7.9375   -2.7141   -0.2310 H         1 <0>         0.1014
     47 H17        -9.6754   -1.1057   -1.1137 H         1 <0>         0.0957
     48 H18        -8.1724   -0.3076   -0.5901 H         1 <0>         0.0444
     49 H19        -6.9414    0.3048   -3.9495 H         1 <0>         0.0935
     50 H20        -6.6098    0.4986   -2.2109 H         1 <0>         0.0428
     51 H21        -5.1973   -1.2916   -3.0679 H         1 <0>         0.0975
     52 H22        -6.6088   -2.1076   -3.7905 H         1 <0>         0.0854
     53 H23       -10.2665    0.6180   -2.5086 H         1 <0>         0.1059
     54 H24        -8.8120    1.6046   -2.2269 H         1 <0>         0.0555
     55 H25       -10.9351    0.2137   -5.0628 H         1 <0>         0.1435
     56 H26       -10.5807    1.1193   -7.3430 H         1 <0>         0.1425
@<TRIPOS>BOND
     1    1    2 1
     2    1   31 1
     3    1   32 1
     4    1   33 1
     5    2    3 1
     6    2    4 1
     7    2   34 1
     8    3   35 1
     9    3   36 1
    10    3   37 1
    11    4    8 1
    12    4    5 1
    13    5   12 ar
    14    5    6 ar
    15    6    7 1
    16    6    9 ar
    17    7    8 2
    18    7   38 1
    19    9   10 ar
    20    9   16 1
    21   10   11 ar
    22   10   39 1
    23   11   12 ar
    24   11   13 1
    25   13   15 1
    26   13   14 1
    27   13   40 1
    28   14   15 1
    29   14   41 1
    30   14   42 1
    31   15   43 1
    32   15   44 1
    33   16   17 2
    34   16   18 am
    35   18   23 1
    36   18   19 1
    37   19   20 1
    38   19   45 1
    39   19   46 1
    40   20   21 1
    41   20   47 1
    42   20   48 1
    43   21   22 1
    44   21   24 1
    45   22   23 1
    46   22   49 1
    47   22   50 1
    48   23   51 1
    49   23   52 1
    50   24   25 1
    51   24   53 1
    52   24   54 1
    53   25   29 1
    54   25   26 2
    55   26   27 1
    56   26   55 1
    57   27   28 2
    58   27   56 1
    59   28   29 1
    60   28   30 1
@<TRIPOS>MOLECULE
ZINC47133132
   55    59     0     0     0
SMALL
USER_CHARGES

@<TRIPOS>ATOM
      1 C1         -0.9577    1.2804    0.0154 C.3       1 <0>        -0.0967
      2 C2         -0.8654    1.6573    1.4716 C.2       1 <0>        -0.0652
      3 C3         -1.0885    2.9803    2.0532 C.ar      1 <0>        -0.1308
      4 C4         -1.4275    4.2300    1.5283 C.ar      1 <0>        -0.0474
      5 C5         -1.5636    5.3015    2.3645 C.ar      1 <0>        -0.1131
      6 C6         -1.3666    5.1564    3.7321 C.ar      1 <0>        -0.0538
      7 C7         -1.0311    3.9316    4.2695 C.ar      1 <0>        -0.0813
      8 C8         -0.8881    2.8270    3.4378 C.ar      1 <0>         0.0813
      9 O1         -0.5752    1.5363    3.6637 O.3       1 <0>        -0.1646
     10 C9         -0.5640    0.8356    2.5103 C.2       1 <0>        -0.0390
     11 C10        -0.2674   -0.5990    2.3951 C.2       1 <0>         0.6082
     12 O2         -0.4036   -1.1644    1.3265 O.2       1 <0>        -0.4975
     13 N1          0.1554   -1.2884    3.4733 N.am      1 <0>        -0.5889
     14 C11         0.2232   -0.6327    4.7816 C.3       1 <0>         0.1828
     15 C12        -1.1360   -0.6665    5.4315 C.2       1 <0>        -0.0464
     16 C13        -1.5968   -1.6366    6.2414 C.2       1 <0>        -0.1815
     17 C14        -2.9075   -1.2658    6.6201 C.2       1 <0>        -0.2102
     18 C15        -3.1693   -0.0913    6.0190 C.2       1 <0>         0.0383
     19 O3         -2.0906    0.2697    5.3050 O.3       1 <0>        -0.1530
     20 C16        -4.4531    0.6897    6.1320 C.3       1 <0>        -0.0871
     21 H1         -5.0301    0.5170    7.0405 H         1 <0>         0.1348
     22 C17        -4.4773    2.0991    5.5370 C.3       1 <0>        -0.1628
     23 C18        -5.2304    0.9617    4.8425 C.3       1 <0>        -0.1356
     24 H2         -6.3187    0.9683    4.9028 H         1 <0>         0.1145
     25 C19        -4.6448    0.4199    3.5370 C.3       1 <0>        -0.1215
     26 C20         0.5471   -2.6935    3.3369 C.3       1 <0>         0.1481
     27 H3          0.8871   -3.0758    4.2993 H         1 <0>         0.1199
     28 C21         1.6754   -2.8198    2.2999 C.3       1 <0>        -0.1461
     29 C22         1.8739   -4.3055    1.9143 C.3       1 <0>        -0.5722
     30 S1          0.2003   -5.0194    2.1825 S.o2      1 <0>         2.3734
     31 O4          0.2749   -5.9999    3.2082 O.2       1 <0>        -0.9329
     32 O5         -0.3618   -5.3653    0.9241 O.2       1 <0>        -0.9286
     33 C23        -0.6650   -3.5307    2.8376 C.3       1 <0>        -0.5980
     34 Br1        -1.5601    6.6550    4.8691 Br        1 <0>        -0.0272
     35 H4         -1.9776    0.9736   -0.2165 H         1 <0>         0.0823
     36 H5         -0.6877    2.1387   -0.5998 H         1 <0>         0.0727
     37 H6         -0.2747    0.4564   -0.1906 H         1 <0>         0.0904
     38 H7         -1.5811    4.3484    0.4659 H         1 <0>         0.1406
     39 H8         -1.8256    6.2679    1.9598 H         1 <0>         0.1431
     40 H9         -0.8797    3.8307    5.3340 H         1 <0>         0.1440
     41 H10         0.9412   -1.1558    5.4133 H         1 <0>         0.1215
     42 H11         0.5389    0.4026    4.6531 H         1 <0>         0.1148
     43 H12        -1.0673   -2.5280    6.5439 H         1 <0>         0.1485
     44 H13        -3.5713   -1.8195    7.2675 H         1 <0>         0.1478
     45 H14        -5.0705    2.8535    6.0539 H         1 <0>         0.1036
     46 H15        -3.5647    2.4614    5.0639 H         1 <0>         0.0982
     47 H16        -4.5607   -0.6650    3.5992 H         1 <0>         0.0577
     48 H17        -5.2991    0.6867    2.7070 H         1 <0>         0.0627
     49 H18        -3.6574    0.8522    3.3747 H         1 <0>         0.0556
     50 H19         1.4149   -2.2467    1.4100 H         1 <0>         0.1077
     51 H20         2.6009   -2.4289    2.7227 H         1 <0>         0.1003
     52 H21         2.1703   -4.3973    0.8694 H         1 <0>         0.1460
     53 H22         2.6058   -4.7800    2.5679 H         1 <0>         0.1418
     54 H23        -1.3297   -3.7918    3.6610 H         1 <0>         0.1438
     55 H24        -1.2056   -3.0093    2.0476 H         1 <0>         0.1572
@<TRIPOS>BOND
     1    1    2 1
     2    1   35 1
     3    1   36 1
     4    1   37 1
     5    2   10 2
     6    2    3 1
     7    3    8 ar
     8    3    4 ar
     9    4    5 ar
    10    4   38 1
    11    5    6 ar
    12    5   39 1
    13    6    7 ar
    14    6   34 1
    15    7    8 ar
    16    7   40 1
    17    8    9 1
    18    9   10 1
    19   10   11 1
    20   11   12 2
    21   11   13 am
    22   13   14 1
    23   13   26 1
    24   14   15 1
    25   14   41 1
    26   14   42 1
    27   15   19 1
    28   15   16 2
    29   16   17 1
    30   16   43 1
    31   17   18 2
    32   17   44 1
    33   18   19 1
    34   18   20 1
    35   20   21 1
    36   20   23 1
    37   20   22 1
    38   22   23 1
    39   22   45 1
    40   22   46 1
    41   23   24 1
    42   23   25 1
    43   25   47 1
    44   25   48 1
    45   25   49 1
    46   26   27 1
    47   26   33 1
    48   26   28 1
    49   28   29 1
    50   28   50 1
    51   28   51 1
    52   29   30 1
    53   29   52 1
    54   29   53 1
    55   30   31 2
    56   30   32 2
    57   30   33 1
    58   33   54 1
    59   33   55 1
@<TRIPOS>MOLECULE
ZINC17720976
   49    54     0     0     0
SMALL
USER_CHARGES

@<TRIPOS>ATOM
      1 C1         -0.0167    1.3774    0.0096 C.ar      1 <0>        -0.0909
      2 C2          1.1667    2.0949    0.0022 C.ar      1 <0>        -0.0890
      3 C3          2.3824    1.4384   -0.0127 C.ar      1 <0>        -0.0532
      4 C4          2.4246    0.0427   -0.0199 C.ar      1 <0>        -0.1367
      5 C5          1.2198   -0.6876   -0.0129 C.ar      1 <0>        -0.1379
      6 C6          0.0021   -0.0041    0.0020 C.ar      1 <0>        -0.0517
      7 C7          1.5125   -2.1344   -0.0229 C.2       1 <0>         0.4094
      8 O1          0.7007   -3.0348   -0.0220 O.2       1 <0>        -0.3952
      9 C8          3.0072   -2.2784   -0.0349 C.3       1 <0>         0.0290
     10 C9          3.5718   -0.8859   -0.0346 C.2       1 <0>         0.4318
     11 O2          4.7456   -0.5830   -0.0443 O.2       1 <0>        -0.3826
     12 C10         3.5181   -3.1046    1.1316 C.3       1 <0>        -0.1446
     13 H1          4.5850   -2.9685    1.3085 H         1 <0>         0.1717
     14 C11         3.1407   -4.5123    0.5240 C.3       1 <0>        -0.2035
     15 H2          2.0639   -4.4278    0.3773 H         1 <0>         0.1419
     16 C12         3.6240   -4.4167   -0.8570 C.3       1 <0>         0.1725
     17 H3          3.0207   -5.0432   -1.5139 H         1 <0>         0.1343
     18 O3          3.4423   -3.0017   -1.2130 O.3       1 <0>        -0.3068
     19 C13         5.0735   -4.8218   -0.9340 C.ar      1 <0>        -0.1257
     20 C14         6.0613   -3.9263   -0.5686 C.ar      1 <0>        -0.0741
     21 C15         7.3909   -4.2968   -0.6385 C.ar      1 <0>        -0.1508
     22 C16         7.7334   -5.5655   -1.0746 C.ar      1 <0>         0.1106
     23 C17         6.7432   -6.4615   -1.4403 C.ar      1 <0>        -0.1495
     24 C18         5.4141   -6.0905   -1.3646 C.ar      1 <0>        -0.0616
     25 F1          9.0329   -5.9286   -1.1437 F         1 <0>        -0.1355
     26 C19         3.1975   -5.3646    1.6832 C.2       1 <0>         0.5879
     27 O4          3.5431   -6.5256    1.7303 O.2       1 <0>        -0.4242
     28 N1          2.7749   -4.5742    2.7237 N.am      1 <0>        -0.5388
     29 C20         2.7330   -3.2321    2.4008 C.2       1 <0>         0.5552
     30 O5          2.1771   -2.3411    3.0064 O.2       1 <0>        -0.4215
     31 C21         2.4332   -5.0731    3.9895 C.ar      1 <0>         0.1276
     32 C22         2.0086   -4.2056    4.9869 C.ar      1 <0>        -0.1078
     33 C23         1.6720   -4.6979    6.2326 C.ar      1 <0>        -0.1140
     34 C24         1.7576   -6.0562    6.4877 C.ar      1 <0>         0.1055
     35 C25         2.1812   -6.9239    5.4939 C.ar      1 <0>        -0.0517
     36 C26         2.5138   -6.4349    4.2444 C.ar      1 <0>        -0.1053
     37 Cl1         2.2884   -8.6264    5.8162 Cl        1 <0>        -0.0312
     38 F2          1.4283   -6.5358    7.7070 F         1 <0>        -0.1200
     39 H4         -0.9612    1.9009    0.0260 H         1 <0>         0.1446
     40 H5          1.1398    3.1746    0.0076 H         1 <0>         0.1451
     41 H6          3.3015    2.0056   -0.0190 H         1 <0>         0.1445
     42 H7         -0.9262   -0.5561    0.0079 H         1 <0>         0.1424
     43 H8          5.7939   -2.9366   -0.2288 H         1 <0>         0.1348
     44 H9          8.1624   -3.5969   -0.3533 H         1 <0>         0.1403
     45 H10         7.0093   -7.4513   -1.7809 H         1 <0>         0.1417
     46 H11         4.6414   -6.7908   -1.6456 H         1 <0>         0.1393
     47 H12         1.9418   -3.1460    4.7887 H         1 <0>         0.1643
     48 H13         1.3420   -4.0229    7.0084 H         1 <0>         0.1577
     49 H14         2.8400   -7.1116    3.4685 H         1 <0>         0.1713
@<TRIPOS>BOND
     1    1    6 ar
     2    1    2 ar
     3    1   39 1
     4    2    3 ar
     5    2   40 1
     6    3    4 ar
     7    3   41 1
     8    4   10 1
     9    4    5 ar
    10    5    6 ar
    11    5    7 1
    12    6   42 1
    13    7    8 2
    14    7    9 1
    15    9   18 1
    16    9   10 1
    17    9   12 1
    18   10   11 2
    19   12   13 1
    20   12   29 1
    21   12   14 1
    22   14   15 1
    23   14   16 1
    24   14   26 1
    25   16   17 1
    26   16   18 1
    27   16   19 1
    28   19   24 ar
    29   19   20 ar
    30   20   21 ar
    31   20   43 1
    32   21   22 ar
    33   21   44 1
    34   22   23 ar
    35   22   25 1
    36   23   24 ar
    37   23   45 1
    38   24   46 1
    39   26   27 2
    40   26   28 am
    41   28   29 am
    42   28   31 1
    43   29   30 2
    44   31   36 ar
    45   31   32 ar
    46   32   33 ar
    47   32   47 1
    48   33   34 ar
    49   33   48 1
    50   34   35 ar
    51   34   38 1
    52   35   36 ar
    53   35   37 1
    54   36   49 1
@<TRIPOS>MOLECULE
ZINC01772207
   52    55     0     0     0
SMALL
USER_CHARGES
[3-(4-methoxyphenoxy)-4-oxo-2-(trifluoromethyl)chromen-7-yl] 3,6-dichloro-2-methoxy-benzoate
@<TRIPOS>ATOM
      1 C1          1.9206   -0.4490   14.2217 C.3       1 <0>         0.0253
      2 O1          1.7995    0.9647   14.3920 O.3       1 <0>        -0.3139
      3 C2          1.7546    1.7209   13.2628 C.ar      1 <0>         0.1071
      4 C3          1.6376    3.0999   13.3558 C.ar      1 <0>        -0.1115
      5 C4          1.5925    3.8682   12.2089 C.ar      1 <0>        -0.0872
      6 C5          1.6641    3.2605   10.9638 C.ar      1 <0>         0.0688
      7 C6          1.7758    1.8808   10.8708 C.ar      1 <0>        -0.1501
      8 C7          1.8263    1.1132   12.0179 C.ar      1 <0>        -0.1666
      9 O2          1.6192    4.0166    9.8348 O.3       1 <0>        -0.2200
     10 C8          1.6927    3.3782    8.6349 C.2       1 <0>        -0.0208
     11 C9          0.5057    2.9390    7.9827 C.2       1 <0>         0.4144
     12 O3         -0.5948    3.1217    8.4757 O.2       1 <0>        -0.4119
     13 C10         0.6622    2.2550    6.6872 C.ar      1 <0>        -0.2114
     14 C11        -0.4424    1.7895    5.9725 C.ar      1 <0>        -0.0059
     15 C12        -0.2580    1.1643    4.7725 C.ar      1 <0>        -0.1350
     16 C13         1.0261    0.9807    4.2634 C.ar      1 <0>         0.1533
     17 C14         2.1320    1.4375    4.9597 C.ar      1 <0>        -0.1318
     18 C15         1.9612    2.0794    6.1788 C.ar      1 <0>         0.1640
     19 O4          3.0208    2.5349    6.8771 O.3       1 <0>        -0.1852
     20 C16         2.8899    3.1571    8.0560 C.2       1 <0>         0.0503
     21 C17         4.1329    3.6303    8.7646 C.3       1 <0>         0.5290
     22 F1          4.6043    2.6169    9.6062 F         1 <0>        -0.1520
     23 F2          5.1157    3.9473    7.8208 F         1 <0>        -0.1551
     24 F3          3.8328    4.7657    9.5247 F         1 <0>        -0.1363
     25 O5          1.1939    0.3530    3.0711 O.3       1 <0>        -0.2798
     26 C18         1.6117   -0.9281    3.1073 C.2       1 <0>         0.5245
     27 O6          1.9030   -1.4424    4.1692 O.2       1 <0>        -0.4448
     28 C19         1.7152   -1.7047    1.8599 C.ar      1 <0>        -0.1145
     29 C20         2.9085   -1.7069    1.1291 C.ar      1 <0>         0.0157
     30 C21         2.9984   -2.4367   -0.0378 C.ar      1 <0>        -0.0994
     31 C22         1.9126   -3.1678   -0.4903 C.ar      1 <0>        -0.0559
     32 C23         0.7299   -3.1787    0.2242 C.ar      1 <0>        -0.0562
     33 C24         0.6189   -2.4463    1.3977 C.ar      1 <0>         0.1632
     34 O7         -0.5433   -2.4526    2.0975 O.3       1 <0>        -0.3213
     35 C25        -1.5031   -1.4458    1.7701 C.3       1 <0>         0.0263
     36 Cl1        -0.6212   -4.1051   -0.3502 Cl        1 <0>        -0.0272
     37 Cl2         4.2737   -0.7933    1.6905 Cl        1 <0>        -0.0305
     38 H1          1.9451   -0.9318   15.1986 H         1 <0>         0.1030
     39 H2          1.0678   -0.8209   13.6538 H         1 <0>         0.0561
     40 H3          2.8414   -0.6724   13.6828 H         1 <0>         0.0564
     41 H4          1.5815    3.5728   14.3251 H         1 <0>         0.1455
     42 H5          1.5017    4.9419   12.2815 H         1 <0>         0.1460
     43 H6          1.8275    1.4073    9.9015 H         1 <0>         0.1204
     44 H7          1.9177    0.0396   11.9456 H         1 <0>         0.1354
     45 H8         -1.4391    1.9258    6.3654 H         1 <0>         0.1615
     46 H9         -1.1121    0.8068    4.2165 H         1 <0>         0.1526
     47 H10         3.1236    1.2949    4.5564 H         1 <0>         0.1579
     48 H11         3.9198   -2.4383   -0.6012 H         1 <0>         0.1619
     49 H12         1.9921   -3.7363   -1.4051 H         1 <0>         0.1610
     50 H13        -2.3835   -1.5640    2.4017 H         1 <0>         0.1085
     51 H14        -1.0670   -0.4606    1.9353 H         1 <0>         0.0560
     52 H15        -1.7909   -1.5448    0.7234 H         1 <0>         0.0603
@<TRIPOS>BOND
     1    1    2 1
     2    1   38 1
     3    1   39 1
     4    1   40 1
     5    2    3 1
     6    3    8 ar
     7    3    4 ar
     8    4    5 ar
     9    4   41 1
    10    5    6 ar
    11    5   42 1
    12    6    7 ar
    13    6    9 1
    14    7    8 ar
    15    7   43 1
    16    8   44 1
    17    9   10 1
    18   10   20 2
    19   10   11 1
    20   11   12 2
    21   11   13 1
    22   13   18 ar
    23   13   14 ar
    24   14   15 ar
    25   14   45 1
    26   15   16 ar
    27   15   46 1
    28   16   17 ar
    29   16   25 1
    30   17   18 ar
    31   17   47 1
    32   18   19 1
    33   19   20 1
    34   20   21 1
    35   21   22 1
    36   21   23 1
    37   21   24 1
    38   25   26 1
    39   26   27 2
    40   26   28 1
    41   28   33 ar
    42   28   29 ar
    43   29   30 ar
    44   29   37 1
    45   30   31 ar
    46   30   48 1
    47   31   32 ar
    48   31   49 1
    49   32   33 ar
    50   32   36 1
    51   33   34 1
    52   34   35 1
    53   35   50 1
    54   35   51 1
    55   35   52 1
@<TRIPOS>MOLECULE
ZINC13571911
   65    70     0     0     0
SMALL
USER_CHARGES
(1R)-1-[3-ethoxy-4-(p-tolylmethoxy)phenyl]-2-(5-methylisoxazol-3-yl)-1H-chromeno[2,3-c]pyrrole-3,9-dione
@<TRIPOS>ATOM
      1 C1          4.9098    8.9124   -0.4056 C.3       1 <0>        -0.1509
      2 C2          4.5683    7.4211   -0.4264 C.3       1 <0>         0.0513
      3 O1          4.1998    7.0353   -1.7521 O.3       1 <0>        -0.3007
      4 C3          3.8642    5.7316   -1.9450 C.ar      1 <0>         0.1102
      5 C4          3.8891    4.8436   -0.8815 C.ar      1 <0>        -0.1323
      6 C5          3.5472    3.5188   -1.0792 C.ar      1 <0>        -0.0943
      7 C6          3.1855    3.0754   -2.3377 C.ar      1 <0>        -0.0937
      8 C7          3.1532    3.9573   -3.4018 C.ar      1 <0>        -0.1721
      9 C8          3.4947    5.2865   -3.2106 C.ar      1 <0>         0.1166
     10 O2          3.4684    6.1543   -4.2573 O.3       1 <0>        -0.2934
     11 C9          3.0794    5.6273   -5.5273 C.3       1 <0>         0.1009
     12 C10         3.1088    6.7265   -6.5578 C.ar      1 <0>        -0.1024
     13 C11         1.9772    7.4854   -6.7914 C.ar      1 <0>        -0.0892
     14 C12         2.0055    8.4966   -7.7335 C.ar      1 <0>        -0.1241
     15 C13         3.1626    8.7427   -8.4488 C.ar      1 <0>        -0.0745
     16 C14         4.2927    7.9807   -8.2185 C.ar      1 <0>        -0.1242
     17 C15         4.2657    6.9723   -7.2734 C.ar      1 <0>        -0.0895
     18 C16         3.1920    9.8420   -9.4792 C.3       1 <0>        -0.1182
     19 C17         3.5748    2.5545    0.0785 C.3       1 <0>         0.2369
     20 H1          3.5367    3.0986    1.0222 H         1 <0>         0.1272
     21 C18         4.8186    1.7064    0.0216 C.2       1 <0>        -0.2394
     22 C19         6.2465    2.0334    0.0675 C.2       1 <0>         0.4507
     23 O3          6.6363    3.1826    0.1761 O.2       1 <0>        -0.4328
     24 C20         7.1888    0.9007   -0.0237 C.ar      1 <0>        -0.2184
     25 C21         8.5683    1.0970    0.0108 C.ar      1 <0>        -0.0249
     26 C22         9.4069    0.0202   -0.0767 C.ar      1 <0>        -0.1444
     27 C23         8.8909   -1.2624   -0.1992 C.ar      1 <0>        -0.0476
     28 C24         7.5301   -1.4750   -0.2350 C.ar      1 <0>        -0.1356
     29 C25         6.6569   -0.3943   -0.1476 C.ar      1 <0>         0.1569
     30 O4          5.3258   -0.5851   -0.1807 O.3       1 <0>        -0.1958
     31 C26         4.4256    0.4146   -0.1004 C.2       1 <0>         0.1039
     32 C27         2.9424    0.3776   -0.1207 C.2       1 <0>         0.5858
     33 O5          2.2738   -0.6320   -0.2196 O.2       1 <0>        -0.4605
     34 N1          2.4449    1.6217   -0.0133 N.am      1 <0>        -0.5039
     35 C28         1.0944    1.9659    0.0022 C.2       1 <0>         0.2666
     36 C29        -0.0126    1.0758    0.0080 C.2       1 <0>        -0.2316
     37 C30        -1.0891    1.8943    0.0167 C.2       1 <0>        -0.0073
     38 O6         -0.6167    3.1492    0.0249 O.3       1 <0>         0.1093
     39 N2          0.5921    3.1730    0.0135 N.2       1 <0>        -0.3603
     40 C31        -2.5373    1.4773    0.0198 C.3       1 <0>        -0.0775
     41 H2          5.7410    9.1043   -1.0841 H         1 <0>         0.0666
     42 H3          4.0408    9.4886   -0.7235 H         1 <0>         0.0664
     43 H4          5.1908    9.2067    0.6056 H         1 <0>         0.0787
     44 H5          3.7370    7.2293    0.2521 H         1 <0>         0.0616
     45 H6          5.4372    6.8449   -0.1086 H         1 <0>         0.0644
     46 H7          4.1752    5.1866    0.1018 H         1 <0>         0.1393
     47 H8          2.9234    2.0387   -2.4890 H         1 <0>         0.1162
     48 H9          2.8660    3.6094   -4.3830 H         1 <0>         0.1372
     49 H10         3.7704    4.8366   -5.8197 H         1 <0>         0.0704
     50 H11         2.0703    5.2208   -5.4584 H         1 <0>         0.0707
     51 H12         1.0721    7.2904   -6.2355 H         1 <0>         0.1240
     52 H13         1.1227    9.0921   -7.9131 H         1 <0>         0.1253
     53 H14         5.1967    8.1729   -8.7773 H         1 <0>         0.1251
     54 H15         5.1486    6.3767   -7.0937 H         1 <0>         0.1237
     55 H16         2.8960    9.4398  -10.4481 H         1 <0>         0.0727
     56 H17         2.5005   10.6323   -9.1872 H         1 <0>         0.0682
     57 H18         4.2009   10.2489   -9.5475 H         1 <0>         0.0680
     58 H19         8.9727    2.0938    0.1064 H         1 <0>         0.1461
     59 H20        10.4763    0.1688   -0.0506 H         1 <0>         0.1413
     60 H21         9.5643   -2.1040   -0.2677 H         1 <0>         0.1464
     61 H22         7.1416   -2.4781   -0.3310 H         1 <0>         0.1496
     62 H23         0.0021   -0.0041    0.0020 H         1 <0>         0.1848
     63 H24        -2.8826    1.3709    1.0481 H         1 <0>         0.0931
     64 H25        -3.1346    2.2348   -0.4875 H         1 <0>         0.0881
     65 H26        -2.6421    0.5244   -0.4991 H         1 <0>         0.0956
@<TRIPOS>BOND
     1    1    2 1
     2    1   41 1
     3    1   42 1
     4    1   43 1
     5    2    3 1
     6    2   44 1
     7    2   45 1
     8    3    4 1
     9    4    9 ar
    10    4    5 ar
    11    5    6 ar
    12    5   46 1
    13    6    7 ar
    14    6   19 1
    15    7    8 ar
    16    7   47 1
    17    8    9 ar
    18    8   48 1
    19    9   10 1
    20   10   11 1
    21   11   12 1
    22   11   49 1
    23   11   50 1
    24   12   17 ar
    25   12   13 ar
    26   13   14 ar
    27   13   51 1
    28   14   15 ar
    29   14   52 1
    30   15   16 ar
    31   15   18 1
    32   16   17 ar
    33   16   53 1
    34   17   54 1
    35   18   55 1
    36   18   56 1
    37   18   57 1
    38   19   20 1
    39   19   34 1
    40   19   21 1
    41   21   31 2
    42   21   22 1
    43   22   23 2
    44   22   24 1
    45   24   29 ar
    46   24   25 ar
    47   25   26 ar
    48   25   58 1
    49   26   27 ar
    50   26   59 1
    51   27   28 ar
    52   27   60 1
    53   28   29 ar
    54   28   61 1
    55   29   30 1
    56   30   31 1
    57   31   32 1
    58   32   33 2
    59   32   34 am
    60   34   35 1
    61   35   39 2
    62   35   36 1
    63   36   37 2
    64   36   62 1
    65   37   38 1
    66   37   40 1
    67   38   39 1
    68   40   63 1
    69   40   64 1
    70   40   65 1
@<TRIPOS>MOLECULE
ZINC35097345
   74    77     0     0     0
SMALL
USER_CHARGES

@<TRIPOS>ATOM
      1 C1          3.1250    1.8599    0.1656 C.3       1 <0>        -0.1431
      2 C2          3.0991    0.3344    0.0505 C.3       1 <0>        -0.0800
      3 C3          1.6808   -0.2579   -0.0784 C.3       1 <0>        -0.1065
      4 H1          1.3754   -0.5024   -1.0957 H         1 <0>         0.0815
      5 C4          0.6611    0.5962    0.6874 C.3       1 <0>        -0.0764
      6 C5          1.1537    0.8377    2.0936 C.2       1 <0>        -0.1249
      7 C6          2.3324    0.3854    2.4553 C.2       1 <0>        -0.1373
      8 C7          3.1472   -0.3939    1.4065 C.3       1 <0>        -0.0616
      9 H2          4.1295   -0.7349    1.7335 H         1 <0>         0.0830
     10 C8          2.2273   -1.4433    0.7357 C.3       1 <0>        -0.1291
     11 C9          2.8646    0.6122    3.8468 C.3       1 <0>         0.1592
     12 N1          2.6219   -0.5801    4.6628 N.am      1 <0>        -0.6029
     13 C10         3.6675   -1.5965    4.8036 C.3       1 <0>         0.0881
     14 C11         4.6531   -1.1670    5.8921 C.3       1 <0>         0.0248
     15 N2          5.7236   -2.1666    6.0056 N.3       1 <0>        -0.5322
     16 C12         6.5375   -2.2073    4.7834 C.3       1 <0>         0.0362
     17 C13         7.5221   -3.3785    4.8682 C.3       1 <0>         0.1173
     18 N3          8.2851   -3.2578    6.1198 N.am      1 <0>        -0.6087
     19 C14         7.5395   -3.0753    7.3744 C.3       1 <0>         0.1018
     20 C15         6.5543   -1.9160    7.1910 C.3       1 <0>         0.0406
     21 C16         9.6317   -3.3134    6.1172 C.2       1 <0>         0.5635
     22 O1         10.2365   -3.3465    5.0633 O.2       1 <0>        -0.5270
     23 C17        10.3732   -3.3343    7.3961 C.ar      1 <0>        -0.1263
     24 C18         9.8637   -4.0354    8.4904 C.ar      1 <0>        -0.0775
     25 C19        10.5601   -4.0512    9.6810 C.ar      1 <0>        -0.1178
     26 C20        11.7613   -3.3736    9.7927 C.ar      1 <0>        -0.0666
     27 C21        12.2722   -2.6759    8.7119 C.ar      1 <0>        -0.0975
     28 C22        11.5882   -2.6579    7.5126 C.ar      1 <0>        -0.0370
     29 Br1        13.9142   -1.7522    8.8757 Br        1 <0>        -0.0371
     30 C23         1.4368   -0.7418    5.2840 C.2       1 <0>         0.5283
     31 O2          0.6132    0.1482    5.2601 O.2       1 <0>        -0.5318
     32 C24         1.1351   -2.0285    6.0081 C.3       1 <0>        -0.0841
     33 C25        -0.2172   -1.9113    6.7141 C.3       1 <0>        -0.1276
     34 C26         1.0872   -3.1806    5.0024 C.3       1 <0>        -0.1470
     35 C27         2.2288   -2.3000    7.0429 C.3       1 <0>        -0.1793
     36 C28         4.0948   -0.2055   -0.9781 C.3       1 <0>        -0.1283
     37 H3          4.0417    2.1709    0.6667 H         1 <0>         0.0524
     38 H4          3.0884    2.3001   -0.8309 H         1 <0>         0.0515
     39 H5          2.2635    2.1954    0.7429 H         1 <0>         0.0678
     40 H6          0.5336    1.5517    0.1786 H         1 <0>         0.0801
     41 H7         -0.2953    0.0744    0.7227 H         1 <0>         0.0744
     42 H8          0.5404    1.3797    2.7983 H         1 <0>         0.1175
     43 H9          1.4977   -1.8879    1.4125 H         1 <0>         0.0658
     44 H10         2.7619   -2.1809    0.1372 H         1 <0>         0.0847
     45 H11         3.9358    0.8078    3.7988 H         1 <0>         0.0795
     46 H12         2.3588    1.4678    4.2943 H         1 <0>         0.0866
     47 H13         3.2139   -2.5486    5.0793 H         1 <0>         0.1174
     48 H14         4.1968   -1.7068    3.8572 H         1 <0>         0.0776
     49 H15         5.0846   -0.2007    5.6308 H         1 <0>         0.0402
     50 H16         4.1296   -1.0855    6.8447 H         1 <0>         0.0925
     51 H17         5.8881   -2.3400    3.9182 H         1 <0>         0.0922
     52 H18         7.0908   -1.2735    4.6836 H         1 <0>         0.0424
     53 H19         6.9725   -4.3199    4.8637 H         1 <0>         0.0805
     54 H20         8.2044   -3.3456    4.0188 H         1 <0>         0.0988
     55 H21         6.9917   -3.9875    7.6109 H         1 <0>         0.0838
     56 H22         8.2334   -2.8418    8.1820 H         1 <0>         0.0983
     57 H23         7.1074   -0.9863    7.0576 H         1 <0>         0.0421
     58 H24         5.9170   -1.8375    8.0718 H         1 <0>         0.0921
     59 H25         8.9259   -4.5643    8.4050 H         1 <0>         0.1402
     60 H26        10.1666   -4.5934   10.5281 H         1 <0>         0.1418
     61 H27        12.3023   -3.3888   10.7273 H         1 <0>         0.1397
     62 H28        11.9901   -2.1176    6.6682 H         1 <0>         0.1420
     63 H29        -0.9965   -1.7179    5.9769 H         1 <0>         0.0618
     64 H30        -0.4355   -2.8420    7.2379 H         1 <0>         0.0617
     65 H31        -0.1831   -1.0906    7.4306 H         1 <0>         0.0599
     66 H32         2.0720   -3.3128    4.5543 H         1 <0>         0.0685
     67 H33         0.7947   -4.0975    5.5140 H         1 <0>         0.0700
     68 H34         0.3608   -2.9521    4.2225 H         1 <0>         0.0603
     69 H35         2.2767   -1.4696    7.7474 H         1 <0>         0.0572
     70 H36         1.9999   -3.2200    7.5808 H         1 <0>         0.0673
     71 H37         3.1892   -2.4038    6.5378 H         1 <0>         0.0995
     72 H38         5.1107   -0.0636   -0.6097 H         1 <0>         0.0579
     73 H39         3.9114   -1.2680   -1.1383 H         1 <0>         0.0583
     74 H40         3.9714    0.3304   -1.9192 H         1 <0>         0.0587
@<TRIPOS>BOND
     1    1    2 1
     2    1   37 1
     3    1   38 1
     4    1   39 1
     5    2    8 1
     6    2    3 1
     7    2   36 1
     8    3    4 1
     9    3   10 1
    10    3    5 1
    11    5    6 1
    12    5   40 1
    13    5   41 1
    14    6    7 2
    15    6   42 1
    16    7    8 1
    17    7   11 1
    18    8    9 1
    19    8   10 1
    20   10   43 1
    21   10   44 1
    22   11   12 1
    23   11   45 1
    24   11   46 1
    25   12   13 1
    26   12   30 am
    27   13   14 1
    28   13   47 1
    29   13   48 1
    30   14   15 1
    31   14   49 1
    32   14   50 1
    33   15   20 1
    34   15   16 1
    35   16   17 1
    36   16   51 1
    37   16   52 1
    38   17   18 1
    39   17   53 1
    40   17   54 1
    41   18   19 1
    42   18   21 am
    43   19   20 1
    44   19   55 1
    45   19   56 1
    46   20   57 1
    47   20   58 1
    48   21   22 2
    49   21   23 1
    50   23   28 ar
    51   23   24 ar
    52   24   25 ar
    53   24   59 1
    54   25   26 ar
    55   25   60 1
    56   26   27 ar
    57   26   61 1
    58   27   28 ar
    59   27   29 1
    60   28   62 1
    61   30   31 2
    62   30   32 1
    63   32   33 1
    64   32   34 1
    65   32   35 1
    66   33   63 1
    67   33   64 1
    68   33   65 1
    69   34   66 1
    70   34   67 1
    71   34   68 1
    72   35   69 1
    73   35   70 1
    74   35   71 1
    75   36   72 1
    76   36   73 1
    77   36   74 1
@<TRIPOS>MOLECULE
ZINC40045217
   61    66     0     0     0
SMALL
USER_CHARGES

@<TRIPOS>ATOM
      1 C1         -0.0187    1.5258    0.0104 C.3       1 <0>        -0.1503
      2 C2          0.0021   -0.0041    0.0020 C.3       1 <0>        -0.0857
      3 C3         -1.4117   -0.5257    0.0127 C.ar      1 <0>        -0.1018
      4 C4         -2.0511   -0.7661    1.2209 C.ar      1 <0>        -0.0511
      5 C5         -3.3414   -1.2452    1.2531 C.ar      1 <0>        -0.1288
      6 C6         -4.0239   -1.4948    0.0625 C.ar      1 <0>         0.1356
      7 C7         -3.3689   -1.2422   -1.1539 C.ar      1 <0>        -0.2056
      8 C8         -2.0622   -0.7551   -1.1677 C.ar      1 <0>        -0.0301
      9 C9         -4.0928   -1.4898   -2.4265 C.2       1 <0>         0.4550
     10 O1         -3.5527   -1.4596   -3.5181 O.2       1 <0>        -0.4201
     11 C10        -5.5198   -1.7744   -2.2441 C.2       1 <0>        -0.2340
     12 C11        -6.0409   -1.9942   -1.0003 C.2       1 <0>         0.0897
     13 O2         -5.2882   -1.9723    0.1173 O.3       1 <0>        -0.1783
     14 C12        -7.4859   -2.2410   -1.1416 C.2       1 <0>         0.5802
     15 O3         -8.2465   -2.4673   -0.2215 O.2       1 <0>        -0.4605
     16 N1         -7.8423   -2.1788   -2.4409 N.am      1 <0>        -0.5258
     17 C13        -6.6356   -1.8834   -3.2308 C.3       1 <0>         0.2319
     18 H1         -6.7577   -0.9417   -3.7659 H         1 <0>         0.1321
     19 C14        -6.3632   -3.0028   -4.2022 C.ar      1 <0>        -0.0421
     20 C15        -6.6220   -4.3116   -3.8382 C.ar      1 <0>        -0.1376
     21 C16        -6.3731   -5.3408   -4.7270 C.ar      1 <0>        -0.0761
     22 C17        -5.8646   -5.0640   -5.9815 C.ar      1 <0>        -0.1992
     23 C18        -5.6042   -3.7520   -6.3490 C.ar      1 <0>         0.1359
     24 C19        -5.8605   -2.7203   -5.4573 C.ar      1 <0>        -0.1074
     25 O4         -5.1040   -3.4771   -7.5824 O.3       1 <0>        -0.3052
     26 C20        -4.8703   -4.5882   -8.4501 C.3       1 <0>         0.1026
     27 C21        -4.3197   -4.0934   -9.7627 C.ar      1 <0>        -0.0982
     28 C22        -5.1805   -3.7602  -10.7917 C.ar      1 <0>        -0.0946
     29 C23        -4.6754   -3.3063  -11.9958 C.ar      1 <0>        -0.1233
     30 C24        -3.3095   -3.1851  -12.1706 C.ar      1 <0>        -0.1088
     31 C25        -2.4488   -3.5174  -11.1413 C.ar      1 <0>        -0.1230
     32 C26        -2.9540   -3.9672   -9.9358 C.ar      1 <0>        -0.0945
     33 C27        -9.1271   -2.3623   -2.9469 C.ar      1 <0>         0.3809
     34 C28       -10.1950   -2.5275   -2.0714 C.ar      1 <0>        -0.1803
     35 C29       -11.4661   -2.7085   -2.5868 C.ar      1 <0>        -0.0356
     36 C30       -11.6264   -2.7182   -3.9668 C.ar      1 <0>        -0.1114
     37 C31       -10.5200   -2.5480   -4.7772 C.ar      1 <0>         0.1527
     38 N2         -9.3208   -2.3724   -4.2562 N.ar      1 <0>        -0.4799
     39 Cl1       -13.1997   -2.9422   -4.6657 Cl        1 <0>        -0.0466
     40 H2          1.0039    1.9031    0.0027 H         1 <0>         0.0625
     41 H3         -0.5459    1.8868   -0.8726 H         1 <0>         0.0571
     42 H4         -0.5289    1.8773    0.9072 H         1 <0>         0.0574
     43 H5          0.5123   -0.3556   -0.8948 H         1 <0>         0.0778
     44 H6          0.5293   -0.3651    0.8851 H         1 <0>         0.0784
     45 H7         -1.5298   -0.5753    2.1473 H         1 <0>         0.1441
     46 H8         -3.8254   -1.4282    2.2011 H         1 <0>         0.1492
     47 H9         -1.5647   -0.5637   -2.1070 H         1 <0>         0.1455
     48 H10        -7.0188   -4.5301   -2.8578 H         1 <0>         0.1112
     49 H11        -6.5760   -6.3621   -4.4404 H         1 <0>         0.1259
     50 H12        -5.6697   -5.8684   -6.6753 H         1 <0>         0.1291
     51 H13        -5.6631   -1.6976   -5.7428 H         1 <0>         0.1341
     52 H14        -4.1528   -5.2659   -7.9874 H         1 <0>         0.0713
     53 H15        -5.8078   -5.1160   -8.6251 H         1 <0>         0.0718
     54 H16        -6.2476   -3.8549  -10.6551 H         1 <0>         0.1242
     55 H17        -5.3479   -3.0467  -12.8000 H         1 <0>         0.1257
     56 H18        -2.9149   -2.8311  -13.1116 H         1 <0>         0.1247
     57 H19        -1.3816   -3.4230  -11.2780 H         1 <0>         0.1257
     58 H20        -2.2817   -4.2233   -9.1303 H         1 <0>         0.1242
     59 H21       -10.0341   -2.5150   -1.0035 H         1 <0>         0.1711
     60 H22       -12.3143   -2.8397   -1.9313 H         1 <0>         0.1545
     61 H23       -10.6392   -2.5551   -5.8506 H         1 <0>         0.1739
@<TRIPOS>BOND
     1    1    2 1
     2    1   40 1
     3    1   41 1
     4    1   42 1
     5    2    3 1
     6    2   43 1
     7    2   44 1
     8    3    8 ar
     9    3    4 ar
    10    4    5 ar
    11    4   45 1
    12    5    6 ar
    13    5   46 1
    14    6   13 1
    15    6    7 ar
    16    7    8 ar
    17    7    9 1
    18    8   47 1
    19    9   10 2
    20    9   11 1
    21   11   17 1
    22   11   12 2
    23   12   13 1
    24   12   14 1
    25   14   15 2
    26   14   16 am
    27   16   17 1
    28   16   33 1
    29   17   18 1
    30   17   19 1
    31   19   24 ar
    32   19   20 ar
    33   20   21 ar
    34   20   48 1
    35   21   22 ar
    36   21   49 1
    37   22   23 ar
    38   22   50 1
    39   23   24 ar
    40   23   25 1
    41   24   51 1
    42   25   26 1
    43   26   27 1
    44   26   52 1
    45   26   53 1
    46   27   32 ar
    47   27   28 ar
    48   28   29 ar
    49   28   54 1
    50   29   30 ar
    51   29   55 1
    52   30   31 ar
    53   30   56 1
    54   31   32 ar
    55   31   57 1
    56   32   58 1
    57   33   38 ar
    58   33   34 ar
    59   34   35 ar
    60   34   59 1
    61   35   36 ar
    62   35   60 1
    63   36   37 ar
    64   36   39 1
    65   37   38 ar
    66   37   61 1
@<TRIPOS>MOLECULE
ZINC01905594
   58    63     0     0     0
SMALL
USER_CHARGES

@<TRIPOS>ATOM
      1 C1          2.5011   -0.7978   -1.3714 C.3       1 <0>        -0.1159
      2 C2          1.2089   -1.1060   -0.6598 C.ar      1 <0>        -0.0746
      3 C3          0.0062   -0.6879   -1.1997 C.ar      1 <0>        -0.0987
      4 C4         -1.1815   -0.9683   -0.5498 C.ar      1 <0>        -0.1038
      5 C5         -1.1703   -1.6674    0.6414 C.ar      1 <0>        -0.0949
      6 C6          0.0355   -2.0891    1.1859 C.ar      1 <0>         0.1206
      7 C7          1.2266   -1.8106    0.5276 C.ar      1 <0>        -0.0896
      8 N1          0.0504   -2.7978    2.3931 N.am      1 <0>        -0.4631
      9 C8          0.1436   -2.1231    3.5508 C.2       1 <0>         0.5826
     10 O1          0.2143   -0.9076    3.5456 O.2       1 <0>        -0.4758
     11 C9          0.1597   -2.8627    4.8334 C.2       1 <0>        -0.1979
     12 C10         0.2576   -2.3212    6.1864 C.2       1 <0>        -0.0252
     13 C11         0.2482   -3.2441    7.1720 C.2       1 <0>        -0.2376
     14 S1          0.1119   -4.7918    6.3321 S.3       1 <0>         0.3186
     15 C12         0.0724   -4.2485    4.7502 C.2       1 <0>         0.0038
     16 N2         -0.0214   -4.8975    3.5371 N.pl3     1 <0>        -0.4039
     17 C13        -0.0372   -4.1810    2.3692 C.2       1 <0>         0.4700
     18 N3         -0.1374   -5.0306    1.3741 N.2       1 <0>        -0.2905
     19 N4         -0.1938   -6.3230    1.9101 N.2       1 <0>        -0.2719
     20 C14        -0.1143   -6.2258    3.2148 C.2       1 <0>         0.2065
     21 S2         -0.1427   -7.5679    4.3560 S.3       1 <0>         0.0231
     22 C15        -0.2766   -9.0379    3.3015 C.3       1 <0>        -0.0610
     23 C16        -0.3111  -10.2733    4.1639 C.ar      1 <0>        -0.0704
     24 C17         0.8678  -10.9070    4.5107 C.ar      1 <0>        -0.0778
     25 C18         0.8375  -12.0403    5.3011 C.ar      1 <0>        -0.0968
     26 C19        -0.3730  -12.5410    5.7462 C.ar      1 <0>        -0.0199
     27 C20        -1.5534  -11.9062    5.3993 C.ar      1 <0>        -0.0325
     28 C21        -1.5208  -10.7689    4.6123 C.ar      1 <0>        -0.0751
     29 Cl1        -3.0731  -12.5336    5.9565 Cl        1 <0>        -0.0386
     30 Cl2        -0.4117  -13.9649    6.7386 Cl        1 <0>        -0.0391
     31 C22         0.3383   -2.9642    8.6397 C.3       1 <0>         0.1473
     32 O2          0.7589   -1.5996    8.8002 O.3       1 <0>        -0.3554
     33 C23         0.0139   -0.6711    8.0079 C.3       1 <0>         0.1092
     34 C24         0.3634   -0.8408    6.5251 C.3       1 <0>        -0.0786
     35 C25         0.3501    0.7552    8.4481 C.3       1 <0>        -0.1392
     36 C26        -1.4824   -0.9205    8.2077 C.3       1 <0>        -0.1833
     37 H1          2.7355   -1.6052   -2.0650 H         1 <0>         0.0756
     38 H2          2.3981    0.1367   -1.9230 H         1 <0>         0.0725
     39 H3          3.3043   -0.7017   -0.6407 H         1 <0>         0.0680
     40 H4         -0.0052   -0.1408   -2.1308 H         1 <0>         0.1324
     41 H5         -2.1190   -0.6401   -0.9738 H         1 <0>         0.1349
     42 H6         -2.0983   -1.8855    1.1490 H         1 <0>         0.1246
     43 H7          2.1657   -2.1411    0.9463 H         1 <0>         0.1246
     44 H8         -1.1919   -8.9803    2.7124 H         1 <0>         0.1171
     45 H9          0.5832   -9.0852    2.6333 H         1 <0>         0.1184
     46 H10         1.8129  -10.5164    4.1634 H         1 <0>         0.1460
     47 H11         1.7586  -12.5352    5.5710 H         1 <0>         0.1498
     48 H12        -2.4410  -10.2708    4.3447 H         1 <0>         0.1489
     49 H13        -0.6377   -3.1069    9.1035 H         1 <0>         0.0850
     50 H14         1.0674   -3.6319    9.0989 H         1 <0>         0.1180
     51 H15         1.3803   -0.4927    6.3439 H         1 <0>         0.0960
     52 H16        -0.3365   -0.2715    5.9135 H         1 <0>         0.1011
     53 H17         1.4168    0.9350    8.3135 H         1 <0>         0.0675
     54 H18        -0.2168    1.4646    7.8453 H         1 <0>         0.0757
     55 H19         0.0900    0.8819    9.4990 H         1 <0>         0.0694
     56 H20        -1.7357   -0.7874    9.2595 H         1 <0>         0.0707
     57 H21        -2.0523   -0.2137    7.6045 H         1 <0>         0.0717
     58 H22        -1.7252   -1.9380    7.9014 H         1 <0>         0.0615
@<TRIPOS>BOND
     1    1    2 1
     2    1   37 1
     3    1   38 1
     4    1   39 1
     5    2    7 ar
     6    2    3 ar
     7    3    4 ar
     8    3   40 1
     9    4    5 ar
    10    4   41 1
    11    5    6 ar
    12    5   42 1
    13    6    7 ar
    14    6    8 1
    15    7   43 1
    16    8   17 1
    17    8    9 am
    18    9   10 2
    19    9   11 1
    20   11   15 2
    21   11   12 1
    22   12   34 1
    23   12   13 2
    24   13   14 1
    25   13   31 1
    26   14   15 1
    27   15   16 1
    28   16   20 1
    29   16   17 1
    30   17   18 2
    31   18   19 1
    32   19   20 2
    33   20   21 1
    34   21   22 1
    35   22   23 1
    36   22   44 1
    37   22   45 1
    38   23   28 ar
    39   23   24 ar
    40   24   25 ar
    41   24   46 1
    42   25   26 ar
    43   25   47 1
    44   26   27 ar
    45   26   30 1
    46   27   28 ar
    47   27   29 1
    48   28   48 1
    49   31   32 1
    50   31   49 1
    51   31   50 1
    52   32   33 1
    53   33   34 1
    54   33   35 1
    55   33   36 1
    56   34   51 1
    57   34   52 1
    58   35   53 1
    59   35   54 1
    60   35   55 1
    61   36   56 1
    62   36   57 1
    63   36   58 1
@<TRIPOS>MOLECULE
ZINC64858406
   98   105     0     0     0
SMALL
USER_CHARGES

@<TRIPOS>ATOM
      1 C1         -1.5636    0.1271   -1.1546 C.3       1 <0>        -0.1519
      2 C2         -0.5550   -0.9734   -0.8193 C.3       1 <0>        -0.0485
      3 C3         -1.0536   -2.3185   -1.3269 C.3       1 <0>        -0.0750
      4 C4         -2.3654   -2.5805   -0.6233 C.2       1 <0>        -0.1486
      5 C5         -2.6847   -2.0608    0.5287 C.2       1 <0>        -0.0953
      6 C6         -1.7786   -1.1641    1.3402 C.3       1 <0>        -0.0356
      7 H1         -2.1907   -0.1552    1.3559 H         1 <0>         0.0856
      8 C7         -0.4025   -1.1163    0.7166 C.3       1 <0>        -0.0803
      9 H2          0.1534   -2.0240    0.9516 H         1 <0>         0.0809
     10 C8          0.4285    0.1229    1.0716 C.3       1 <0>        -0.1140
     11 C9          1.4693    0.1879   -0.0780 C.3       1 <0>        -0.1162
     12 C10         0.8452   -0.5668   -1.2765 C.3       1 <0>        -0.1288
     13 H3          1.4360   -1.4515   -1.5139 H         1 <0>         0.0981
     14 C11         0.7587    0.3409   -2.4763 C.2       1 <0>         0.3692
     15 O1          0.7449    1.5392   -2.3271 O.2       1 <0>        -0.4279
     16 C12         0.6894   -0.2466   -3.8623 C.3       1 <0>         0.0035
     17 N1          0.6119    0.8375   -4.8504 N.3       1 <0>        -0.5240
     18 C13        -0.6465    1.5834   -4.7160 C.3       1 <0>         0.0381
     19 C14        -0.6107    2.8091   -5.6350 C.3       1 <0>         0.1329
     20 N2         -0.2964    2.3605   -7.0000 N.pl3     1 <0>        -0.6000
     21 C15         0.8755    1.4934   -7.1951 C.3       1 <0>         0.1317
     22 C16         0.7812    0.3196   -6.2146 C.3       1 <0>         0.0407
     23 C17        -1.0836    2.7450   -8.0742 C.ar      1 <0>         0.5025
     24 C18        -2.1239    3.6526   -7.8970 C.ar      1 <0>        -0.4105
     25 C19        -2.8873    4.0097   -9.0043 C.ar      1 <0>         0.5172
     26 N3         -2.5996    3.4752  -10.1891 N.ar      1 <0>        -0.6524
     27 C20        -1.6019    2.6143  -10.3206 C.ar      1 <0>         0.6404
     28 N4         -0.8513    2.2554   -9.2899 N.ar      1 <0>        -0.6538
     29 N5         -1.3332    2.0798  -11.5684 N.pl3     1 <0>        -0.5837
     30 C21        -2.1377    2.4639  -12.7363 C.3       1 <0>         0.1299
     31 C22        -1.1980    2.9525  -13.8431 C.3       1 <0>        -0.1354
     32 C23        -0.1493    1.8751  -14.1290 C.3       1 <0>        -0.1207
     33 C24         0.6803    1.6210  -12.8683 C.3       1 <0>        -0.1357
     34 C25        -0.2343    1.1219  -11.7516 C.3       1 <0>         0.1306
     35 N6         -3.9336    4.9098   -8.8752 N.pl3     1 <0>        -0.6073
     36 C26        -4.8789    5.2828   -9.9377 C.3       1 <0>         0.1211
     37 C27        -5.8468    6.3278   -9.3437 C.3       1 <0>        -0.1347
     38 C28        -5.0438    6.9050   -8.1481 C.3       1 <0>        -0.1336
     39 C29        -4.2867    5.6467   -7.6482 C.3       1 <0>         0.1173
     40 C30        -1.6726   -1.6893    2.7745 C.3       1 <0>        -0.1087
     41 C31        -3.0624   -1.7933    3.4076 C.3       1 <0>        -0.0950
     42 C32        -3.9004   -2.7219    2.5504 C.2       1 <0>        -0.0247
     43 C33        -4.4637   -3.7872    3.1011 C.2       1 <0>        -0.2269
     44 C34        -5.2437   -4.7256    2.2783 C.2       1 <0>         0.4070
     45 O2         -5.8326   -5.6599    2.7892 O.2       1 <0>        -0.4566
     46 C35        -5.2956   -4.5081    0.8225 C.2       1 <0>        -0.2123
     47 C36        -4.7372   -3.4278    0.2967 C.2       1 <0>        -0.0713
     48 C37        -4.0546   -2.3757    1.0985 C.3       1 <0>         0.0183
     49 C38        -4.9050   -1.1073    1.0045 C.3       1 <0>        -0.1344
     50 H4         -1.1917    1.0844   -0.7894 H         1 <0>         0.0658
     51 H5         -1.6997    0.1784   -2.2349 H         1 <0>         0.0489
     52 H6         -2.5181   -0.0974   -0.6785 H         1 <0>         0.0699
     53 H7         -1.2093   -2.2770   -2.4049 H         1 <0>         0.0733
     54 H8         -0.3350   -3.1005   -1.0815 H         1 <0>         0.0829
     55 H9         -3.0786   -3.2351   -1.1022 H         1 <0>         0.1129
     56 H10        -0.1955    1.0166    1.0773 H         1 <0>         0.0708
     57 H11         0.9244   -0.0082    2.0333 H         1 <0>         0.0697
     58 H12         1.6626    1.2258   -0.3492 H         1 <0>         0.0820
     59 H13         2.3958   -0.2978    0.2284 H         1 <0>         0.0693
     60 H14         1.5815   -0.8447   -4.0483 H         1 <0>         0.1088
     61 H15        -0.1952   -0.8780   -3.9454 H         1 <0>         0.0673
     62 H16        -1.4815    0.9419   -4.9977 H         1 <0>         0.0338
     63 H17        -0.7687    1.9073   -3.6824 H         1 <0>         0.0999
     64 H18        -1.5829    3.3019   -5.6263 H         1 <0>         0.0878
     65 H19         0.1574    3.5020   -5.2915 H         1 <0>         0.0766
     66 H20         0.8859    1.1164   -8.2178 H         1 <0>         0.1009
     67 H21         1.7864    2.0599   -7.0015 H         1 <0>         0.0688
     68 H22         1.6944   -0.2732   -6.2679 H         1 <0>         0.0872
     69 H23        -0.0737   -0.3044   -6.4754 H         1 <0>         0.0393
     70 H24        -2.3339    4.0696   -6.9231 H         1 <0>         0.1292
     71 H25        -2.7023    1.6015  -13.0907 H         1 <0>         0.0603
     72 H26        -2.8241    3.2642  -12.4600 H         1 <0>         0.0973
     73 H27        -1.7730    3.1496  -14.7479 H         1 <0>         0.0737
     74 H28        -0.7010    3.8675  -13.5208 H         1 <0>         0.0644
     75 H29        -0.6481    0.9530  -14.4275 H         1 <0>         0.0634
     76 H30         0.5057    2.2102  -14.9333 H         1 <0>         0.0635
     77 H31         1.4420    0.8705  -13.0792 H         1 <0>         0.0742
     78 H32         1.1596    2.5485  -12.5551 H         1 <0>         0.0646
     79 H33         0.3347    1.0372  -10.8258 H         1 <0>         0.0968
     80 H34        -0.6403    0.1477  -12.0239 H         1 <0>         0.0598
     81 H35        -4.3384    5.7147  -10.7800 H         1 <0>         0.0654
     82 H36        -5.4361    4.4043  -10.2633 H         1 <0>         0.0631
     83 H37        -6.0671    7.1076  -10.0727 H         1 <0>         0.0827
     84 H38        -6.7641    5.8512   -8.9980 H         1 <0>         0.0760
     85 H39        -4.3494    7.6768   -8.4800 H         1 <0>         0.0772
     86 H40        -5.7123    7.2885   -7.3773 H         1 <0>         0.0857
     87 H41        -4.9325    5.0397   -7.0137 H         1 <0>         0.0662
     88 H42        -3.3859    5.9365   -7.1072 H         1 <0>         0.0745
     89 H43        -1.2062   -2.6745    2.7643 H         1 <0>         0.0682
     90 H44        -1.0580   -1.0084    3.3634 H         1 <0>         0.0764
     91 H45        -2.9783   -2.1986    4.4160 H         1 <0>         0.0826
     92 H46        -3.5254   -0.8072    3.4437 H         1 <0>         0.0859
     93 H47        -4.3496   -3.9681    4.1597 H         1 <0>         0.1381
     94 H48        -5.7876   -5.2278    0.1849 H         1 <0>         0.1402
     95 H49        -4.7790   -3.3038   -0.7753 H         1 <0>         0.1296
     96 H50        -4.9907   -0.8038   -0.0389 H         1 <0>         0.0692
     97 H51        -5.8981   -1.3049    1.4081 H         1 <0>         0.0644
     98 H52        -4.4321   -0.3096    1.5773 H         1 <0>         0.0706
@<TRIPOS>BOND
     1    1    2 1
     2    1   50 1
     3    1   51 1
     4    1   52 1
     5    2    8 1
     6    2   12 1
     7    2    3 1
     8    3    4 1
     9    3   53 1
    10    3   54 1
    11    4    5 2
    12    4   55 1
    13    5   48 1
    14    5    6 1
    15    6    7 1
    16    6    8 1
    17    6   40 1
    18    8    9 1
    19    8   10 1
    20   10   11 1
    21   10   56 1
    22   10   57 1
    23   11   12 1
    24   11   58 1
    25   11   59 1
    26   12   13 1
    27   12   14 1
    28   14   15 2
    29   14   16 1
    30   16   17 1
    31   16   60 1
    32   16   61 1
    33   17   22 1
    34   17   18 1
    35   18   19 1
    36   18   62 1
    37   18   63 1
    38   19   20 1
    39   19   64 1
    40   19   65 1
    41   20   21 1
    42   20   23 1
    43   21   22 1
    44   21   66 1
    45   21   67 1
    46   22   68 1
    47   22   69 1
    48   23   28 ar
    49   23   24 ar
    50   24   25 ar
    51   24   70 1
    52   25   26 ar
    53   25   35 1
    54   26   27 ar
    55   27   28 ar
    56   27   29 1
    57   29   34 1
    58   29   30 1
    59   30   31 1
    60   30   71 1
    61   30   72 1
    62   31   32 1
    63   31   73 1
    64   31   74 1
    65   32   33 1
    66   32   75 1
    67   32   76 1
    68   33   34 1
    69   33   77 1
    70   33   78 1
    71   34   79 1
    72   34   80 1
    73   35   39 1
    74   35   36 1
    75   36   37 1
    76   36   81 1
    77   36   82 1
    78   37   38 1
    79   37   83 1
    80   37   84 1
    81   38   39 1
    82   38   85 1
    83   38   86 1
    84   39   87 1
    85   39   88 1
    86   40   41 1
    87   40   89 1
    88   40   90 1
    89   41   42 1
    90   41   91 1
    91   41   92 1
    92   42   48 1
    93   42   43 2
    94   43   44 1
    95   43   93 1
    96   44   45 2
    97   44   46 1
    98   46   47 2
    99   46   94 1
   100   47   48 1
   101   47   95 1
   102   48   49 1
   103   49   96 1
   104   49   97 1
   105   49   98 1
@<TRIPOS>MOLECULE
ZINC09540816
   62    66     0     0     0
SMALL
USER_CHARGES
3-[(E)-(3-butyl-4-oxo-2-thioxo-thiazolidin-5-ylidene)methyl]-2-[4-(4-fluorophenyl)piperazin-1-yl]pyrido[2,1-b]pyrimidin-4-one
@<TRIPOS>ATOM
      1 C1         -5.0514    4.1516    4.3389 C.3       1 <0>        -0.1516
      2 C2         -4.3256    2.8458    4.6690 C.3       1 <0>        -0.1171
      3 C3         -4.1813    2.0070    3.3975 C.3       1 <0>        -0.1309
      4 C4         -3.4555    0.7012    3.7276 C.3       1 <0>         0.0863
      5 N1         -3.3173   -0.1019    2.5102 N.am      1 <0>        -0.5226
      6 C5         -2.2465    0.0466    1.7498 C.2       1 <0>         0.5454
      7 O1         -1.3724    0.8417    2.0471 O.2       1 <0>        -0.4608
      8 C6         -2.1431   -0.7493    0.5734 C.2       1 <0>        -0.2555
      9 C7         -1.1535   -0.7858   -0.3658 C.2       1 <0>         0.1746
     10 C8         -0.0374    0.0753   -0.2510 C.2       1 <0>        -0.3410
     11 C9          1.2524   -0.4410    0.0170 C.2       1 <0>         0.4371
     12 N2          2.2801    0.3893    0.1191 N.2       1 <0>        -0.5730
     13 C10         2.1323    1.7065   -0.0246 C.2       1 <0>         0.4274
     14 C11         3.2600    2.5386    0.0945 C.2       1 <0>        -0.1450
     15 C12         3.1191    3.8868   -0.0509 C.2       1 <0>        -0.0156
     16 C13         1.8525    4.4248   -0.3170 C.2       1 <0>        -0.1684
     17 C14         0.7795    3.6100   -0.4287 C.2       1 <0>         0.1115
     18 N3          0.9098    2.2606   -0.2846 N.am      1 <0>        -0.4265
     19 C15        -0.1825    1.4751   -0.4017 C.2       1 <0>         0.5509
     20 O2         -1.2743    1.9631   -0.6382 O.2       1 <0>        -0.5132
     21 N4          1.4385   -1.7974    0.1704 N.pl3     1 <0>        -0.4750
     22 C16         0.7370   -2.2938    1.3625 C.3       1 <0>         0.0566
     23 C17         0.9021   -3.8127    1.4528 C.3       1 <0>         0.0592
     24 N5          2.3325   -4.1448    1.5105 N.pl3     1 <0>        -0.4887
     25 C18         3.0340   -3.6484    0.3184 C.3       1 <0>         0.0468
     26 C19         2.8689   -2.1295    0.2281 C.3       1 <0>         0.0641
     27 C20         2.5213   -5.5214    1.6662 C.ar      1 <0>         0.1002
     28 C21         3.2876   -6.2265    0.7472 C.ar      1 <0>        -0.1398
     29 C22         3.4768   -7.5855    0.9056 C.ar      1 <0>        -0.1254
     30 C23         2.8945   -8.2468    1.9737 C.ar      1 <0>         0.0743
     31 C24         2.1258   -7.5467    2.8883 C.ar      1 <0>        -0.1265
     32 C25         1.9383   -6.1867    2.7367 C.ar      1 <0>        -0.1096
     33 F1          3.0770   -9.5769    2.1241 F         1 <0>        -0.1404
     34 S1         -3.6658   -1.6819    0.6575 S.3       1 <0>         0.0609
     35 C26        -4.2870   -0.9840    2.1802 C.2       1 <0>         0.2850
     36 S2         -5.7436   -1.3373    3.0074 S.2       1 <0>        -0.3393
     37 H1         -6.0397    3.9266    3.9379 H         1 <0>         0.0565
     38 H2         -5.1542    4.7491    5.2447 H         1 <0>         0.0583
     39 H3         -4.4774    4.7093    3.5989 H         1 <0>         0.0529
     40 H4         -4.8996    2.2881    5.4089 H         1 <0>         0.0697
     41 H5         -3.3373    3.0707    5.0700 H         1 <0>         0.0637
     42 H6         -3.6073    2.5647    2.6575 H         1 <0>         0.0670
     43 H7         -5.1696    1.7821    2.9965 H         1 <0>         0.0741
     44 H8         -4.0295    0.1435    4.4676 H         1 <0>         0.1116
     45 H9         -2.4672    0.9262    4.1286 H         1 <0>         0.1010
     46 H10        -1.2227   -1.4722   -1.1968 H         1 <0>         0.1547
     47 H11         4.2308    2.1124    0.3001 H         1 <0>         0.1704
     48 H12         3.9777    4.5359    0.0380 H         1 <0>         0.1586
     49 H13         1.7336    5.4919   -0.4334 H         1 <0>         0.1645
     50 H14        -0.1926    4.0331   -0.6346 H         1 <0>         0.1845
     51 H15         1.1594   -1.8285    2.2531 H         1 <0>         0.0656
     52 H16        -0.3222   -2.0468    1.2904 H         1 <0>         0.0938
     53 H17         0.4554   -4.2799    0.5751 H         1 <0>         0.0628
     54 H18         0.4070   -4.1795    2.3519 H         1 <0>         0.0973
     55 H19         2.6115   -4.1137   -0.5722 H         1 <0>         0.0607
     56 H20         4.0931   -3.8955    0.3906 H         1 <0>         0.0981
     57 H21         3.3639   -1.7627   -0.6710 H         1 <0>         0.0990
     58 H22         3.3155   -1.6624    1.1059 H         1 <0>         0.0727
     59 H23         3.7385   -5.7119   -0.0884 H         1 <0>         0.1377
     60 H24         4.0762   -8.1334    0.1937 H         1 <0>         0.1369
     61 H25         1.6729   -8.0644    3.7208 H         1 <0>         0.1386
     62 H26         1.3390   -5.6410    3.4505 H         1 <0>         0.1349
@<TRIPOS>BOND
     1    1    2 1
     2    1   37 1
     3    1   38 1
     4    1   39 1
     5    2    3 1
     6    2   40 1
     7    2   41 1
     8    3    4 1
     9    3   42 1
    10    3   43 1
    11    4    5 1
    12    4   44 1
    13    4   45 1
    14    5   35 1
    15    5    6 am
    16    6    7 2
    17    6    8 1
    18    8    9 2
    19    8   34 1
    20    9   10 1
    21    9   46 1
    22   10   19 1
    23   10   11 2
    24   11   12 1
    25   11   21 1
    26   12   13 2
    27   13   18 1
    28   13   14 1
    29   14   15 2
    30   14   47 1
    31   15   16 1
    32   15   48 1
    33   16   17 2
    34   16   49 1
    35   17   18 1
    36   17   50 1
    37   18   19 am
    38   19   20 2
    39   21   26 1
    40   21   22 1
    41   22   23 1
    42   22   51 1
    43   22   52 1
    44   23   24 1
    45   23   53 1
    46   23   54 1
    47   24   25 1
    48   24   27 1
    49   25   26 1
    50   25   55 1
    51   25   56 1
    52   26   57 1
    53   26   58 1
    54   27   32 ar
    55   27   28 ar
    56   28   29 ar
    57   28   59 1
    58   29   30 ar
    59   29   60 1
    60   30   31 ar
    61   30   33 1
    62   31   32 ar
    63   31   61 1
    64   32   62 1
    65   34   35 1
    66   35   36 2
@<TRIPOS>MOLECULE
ZINC16524589
   64    69     0     0     0
SMALL
USER_CHARGES

@<TRIPOS>ATOM
      1 C1         -0.0167    1.3795    0.0096 C.ar      1 <0>        -0.1447
      2 C2          1.1736    2.0838    0.0020 C.ar      1 <0>        -0.0651
      3 C3          2.3795    1.4144   -0.0131 C.ar      1 <0>        -0.1474
      4 C4          2.4070    0.0214   -0.0214 C.ar      1 <0>         0.1698
      5 C5          1.2041   -0.6755   -0.0135 C.ar      1 <0>        -0.1581
      6 C6          0.0021   -0.0041    0.0020 C.ar      1 <0>        -0.0287
      7 C7          1.5675   -2.1382   -0.0253 C.3       1 <0>         0.2815
      8 C8          3.0766   -2.1531   -0.0404 C.2       1 <0>         0.5321
      9 O1          3.7889   -3.1347   -0.0534 O.2       1 <0>        -0.4668
     10 N1          3.4811   -0.8701   -0.0370 N.am      1 <0>        -0.5376
     11 C9          4.8864   -0.4563   -0.0485 C.3       1 <0>         0.2791
     12 N2          5.3697   -0.3259    1.3325 N.3       1 <0>        -0.5478
     13 C10         4.9610    0.9596    1.9142 C.3       1 <0>         0.0348
     14 C11         5.3245    0.9817    3.4026 C.3       1 <0>         0.1527
     15 N3          6.7540    0.6637    3.5392 N.pl3     1 <0>        -0.6764
     16 C12         7.2666   -0.5396    2.8666 C.3       1 <0>         0.1518
     17 C13         6.8266   -0.5018    1.3992 C.3       1 <0>         0.0462
     18 C14         7.6032    1.4836    4.2891 C.ar      1 <0>         0.1381
     19 C15         7.7917    1.2374    5.6424 C.ar      1 <0>        -0.0966
     20 C16         8.6316    2.0487    6.3805 C.ar      1 <0>        -0.1236
     21 C17         9.2845    3.1059    5.7739 C.ar      1 <0>        -0.0941
     22 C18         9.0998    3.3556    4.4264 C.ar      1 <0>        -0.1515
     23 C19         8.2654    2.5440    3.6799 C.ar      1 <0>         0.0882
     24 F1          8.0894    2.7842    2.3621 F         1 <0>        -0.1368
     25 O2          1.0465   -2.7787   -1.1959 O.3       1 <0>        -0.3363
     26 C20         0.7156   -4.1214   -0.7630 C.3       1 <0>         0.0201
     27 C21         0.2213   -3.8751    0.6847 C.3       1 <0>         0.0521
     28 H1         -0.8257   -3.5720    0.6880 H         1 <0>         0.1087
     29 O3          1.0660   -2.7965    1.1392 O.3       1 <0>        -0.3326
     30 C22         0.4233   -5.1242    1.5449 C.3       1 <0>         0.0602
     31 O4         -0.1453   -4.9091    2.8381 O.3       1 <0>        -0.3017
     32 C23        -0.0509   -5.9294    3.7312 C.ar      1 <0>         0.1367
     33 C24         0.5811   -7.1108    3.3717 C.ar      1 <0>        -0.1981
     34 C25         0.6761   -8.1466    4.2808 C.ar      1 <0>        -0.0679
     35 C26         0.1408   -8.0065    5.5490 C.ar      1 <0>        -0.0732
     36 C27        -0.4904   -6.8290    5.9093 C.ar      1 <0>        -0.0690
     37 C28        -0.5814   -5.7885    5.0052 C.ar      1 <0>        -0.1374
     38 Cl1         0.2609   -9.3098    6.6895 Cl        1 <0>        -0.0690
     39 H2         -0.9584    1.9081    0.0259 H         1 <0>         0.1353
     40 H3          1.1587    3.1637    0.0077 H         1 <0>         0.1357
     41 H4          3.3048    1.9715   -0.0190 H         1 <0>         0.1274
     42 H5         -0.9256   -0.5570    0.0083 H         1 <0>         0.1307
     43 H6          5.4812   -1.2045   -0.5725 H         1 <0>         0.1050
     44 H7          4.9785    0.5030   -0.5578 H         1 <0>         0.0704
     45 H8          5.4773    1.7713    1.4016 H         1 <0>         0.0424
     46 H9          3.8841    1.0841    1.8009 H         1 <0>         0.0846
     47 H10         5.1290    1.9725    3.8127 H         1 <0>         0.0731
     48 H11         4.7315    0.2383    3.9354 H         1 <0>         0.0612
     49 H12         8.3551   -0.5546    2.9222 H         1 <0>         0.0747
     50 H13         6.8603   -1.4292    3.3479 H         1 <0>         0.0627
     51 H14         7.1027   -1.4372    0.9125 H         1 <0>         0.0857
     52 H15         7.3169    0.3303    0.8938 H         1 <0>         0.0441
     53 H16         7.2819    0.4125    6.1177 H         1 <0>         0.1321
     54 H17         8.7782    1.8572    7.4333 H         1 <0>         0.1306
     55 H18         9.9402    3.7384    6.3541 H         1 <0>         0.1330
     56 H19         9.6110    4.1824    3.9557 H         1 <0>         0.1345
     57 H20        -0.0775   -4.5454   -1.3790 H         1 <0>         0.1274
     58 H21         1.5975   -4.7620   -0.7703 H         1 <0>         0.0922
     59 H22        -0.0652   -5.9751    1.0702 H         1 <0>         0.0878
     60 H23         1.4895   -5.3273    1.6460 H         1 <0>         0.0806
     61 H24         0.9984   -7.2208    2.3817 H         1 <0>         0.1367
     62 H25         1.1680   -9.0665    4.0013 H         1 <0>         0.1372
     63 H26        -0.9078   -6.7217    6.8995 H         1 <0>         0.1416
     64 H27        -1.0699   -4.8678    5.2883 H         1 <0>         0.1418
@<TRIPOS>BOND
     1    1    6 ar
     2    1    2 ar
     3    1   39 1
     4    2    3 ar
     5    2   40 1
     6    3    4 ar
     7    3   41 1
     8    4   10 1
     9    4    5 ar
    10    5    6 ar
    11    5    7 1
    12    6   42 1
    13    7   29 1
    14    7    8 1
    15    7   25 1
    16    8    9 2
    17    8   10 am
    18   10   11 1
    19   11   12 1
    20   11   43 1
    21   11   44 1
    22   12   17 1
    23   12   13 1
    24   13   14 1
    25   13   45 1
    26   13   46 1
    27   14   15 1
    28   14   47 1
    29   14   48 1
    30   15   16 1
    31   15   18 1
    32   16   17 1
    33   16   49 1
    34   16   50 1
    35   17   51 1
    36   17   52 1
    37   18   23 ar
    38   18   19 ar
    39   19   20 ar
    40   19   53 1
    41   20   21 ar
    42   20   54 1
    43   21   22 ar
    44   21   55 1
    45   22   23 ar
    46   22   56 1
    47   23   24 1
    48   25   26 1
    49   26   27 1
    50   26   57 1
    51   26   58 1
    52   27   28 1
    53   27   29 1
    54   27   30 1
    55   30   31 1
    56   30   59 1
    57   30   60 1
    58   31   32 1
    59   32   37 ar
    60   32   33 ar
    61   33   34 ar
    62   33   61 1
    63   34   35 ar
    64   34   62 1
    65   35   36 ar
    66   35   38 1
    67   36   37 ar
    68   36   63 1
    69   37   64 1
@<TRIPOS>MOLECULE
ZINC38728042
   50    54     0     0     0
SMALL
USER_CHARGES

@<TRIPOS>ATOM
      1 C1         -0.0187    1.5258    0.0104 C.3       1 <0>        -0.1504
      2 C2          0.0021   -0.0041    0.0020 C.3       1 <0>        -0.0290
      3 C3         -1.4117   -0.5257    0.0127 C.2       1 <0>         0.0631
      4 N1         -2.2142   -0.8190   -0.9915 N.2       1 <0>        -0.2536
      5 N2         -3.3852   -1.2515   -0.8111 N.2       1 <0>        -0.2872
      6 C4         -3.8824   -1.4382    0.4041 C.2       1 <0>         0.2919
      7 S1         -2.4781   -0.9313    1.3927 S.3       1 <0>         0.0480
      8 N3         -5.1317   -1.9001    0.7972 N.am      1 <0>        -0.4909
      9 C5         -6.2249   -2.3078   -0.1005 C.3       1 <0>         0.2358
     10 H1         -5.9095   -3.1471   -0.7203 H         1 <0>         0.1416
     11 C6         -7.3507   -2.7196    0.7905 C.2       1 <0>        -0.2249
     12 C7         -8.6984   -3.2087    0.4811 C.2       1 <0>         0.4615
     13 O1         -9.0527   -3.5224   -0.6419 O.2       1 <0>        -0.4246
     14 C8         -9.5890   -3.2852    1.6643 C.ar      1 <0>        -0.2491
     15 C9        -10.9528   -3.5391    1.5057 C.ar      1 <0>         0.0146
     16 C10       -11.7633   -3.6021    2.6022 C.ar      1 <0>        -0.2266
     17 C11       -11.2323   -3.4127    3.8775 C.ar      1 <0>         0.2027
     18 C12        -9.8833   -3.1617    4.0502 C.ar      1 <0>        -0.1764
     19 C13        -9.0395   -3.0970    2.9448 C.ar      1 <0>         0.1842
     20 O2         -7.7216   -2.8605    3.1382 O.3       1 <0>        -0.1740
     21 C14        -6.9358   -2.5664    2.0830 C.2       1 <0>         0.0942
     22 C15        -5.5539   -2.0594    2.0681 C.2       1 <0>         0.5756
     23 O3         -4.8908   -1.8171    3.0572 O.2       1 <0>        -0.4423
     24 O4        -12.0479   -3.4749    4.9605 O.3       1 <0>        -0.3031
     25 C16       -13.4314   -3.7368    4.7166 C.3       1 <0>         0.0500
     26 C17       -14.1865   -3.7697    6.0469 C.3       1 <0>        -0.1549
     27 C18        -6.6440   -1.1496   -0.9688 C.ar      1 <0>        -0.0931
     28 C19        -6.6848    0.1287   -0.4437 C.ar      1 <0>        -0.0850
     29 C20        -7.0690    1.1914   -1.2396 C.ar      1 <0>        -0.1095
     30 C21        -7.4127    0.9765   -2.5613 C.ar      1 <0>        -0.0751
     31 C22        -7.3716   -0.3020   -3.0872 C.ar      1 <0>        -0.0859
     32 C23        -6.9819   -1.3646   -2.2915 C.ar      1 <0>        -0.0474
     33 Br1        -7.8422   -0.5967   -4.8948 Br        1 <0>        -0.0389
     34 H2          1.0039    1.9031    0.0027 H         1 <0>         0.0766
     35 H3         -0.5459    1.8868   -0.8726 H         1 <0>         0.0651
     36 H4         -0.5289    1.8773    0.9072 H         1 <0>         0.0599
     37 H5          0.5123   -0.3556   -0.8948 H         1 <0>         0.1091
     38 H6          0.5293   -0.3651    0.8851 H         1 <0>         0.0981
     39 H7        -11.3652   -3.6855    0.5183 H         1 <0>         0.1518
     40 H8        -12.8183   -3.7988    2.4817 H         1 <0>         0.1467
     41 H9         -9.4842   -3.0162    5.0431 H         1 <0>         0.1573
     42 H10       -13.8440   -2.9509    4.0840 H         1 <0>         0.0701
     43 H11       -13.5361   -4.6991    4.2155 H         1 <0>         0.0703
     44 H12       -13.7739   -4.5556    6.6795 H         1 <0>         0.0692
     45 H13       -14.0817   -2.8074    6.5480 H         1 <0>         0.0691
     46 H14       -15.2417   -3.9695    5.8609 H         1 <0>         0.0835
     47 H15        -6.4167    0.2970    0.5889 H         1 <0>         0.1177
     48 H16        -7.1011    2.1897   -0.8289 H         1 <0>         0.1359
     49 H17        -7.7136    1.8068   -3.1830 H         1 <0>         0.1377
     50 H18        -6.9460   -2.3626   -2.7028 H         1 <0>         0.1408
@<TRIPOS>BOND
     1    1    2 1
     2    1   34 1
     3    1   35 1
     4    1   36 1
     5    2    3 1
     6    2   37 1
     7    2   38 1
     8    3    7 1
     9    3    4 2
    10    4    5 1
    11    5    6 2
    12    6    7 1
    13    6    8 1
    14    8   22 am
    15    8    9 1
    16    9   10 1
    17    9   11 1
    18    9   27 1
    19   11   21 2
    20   11   12 1
    21   12   13 2
    22   12   14 1
    23   14   19 ar
    24   14   15 ar
    25   15   16 ar
    26   15   39 1
    27   16   17 ar
    28   16   40 1
    29   17   18 ar
    30   17   24 1
    31   18   19 ar
    32   18   41 1
    33   19   20 1
    34   20   21 1
    35   21   22 1
    36   22   23 2
    37   24   25 1
    38   25   26 1
    39   25   42 1
    40   25   43 1
    41   26   44 1
    42   26   45 1
    43   26   46 1
    44   27   32 ar
    45   27   28 ar
    46   28   29 ar
    47   28   47 1
    48   29   30 ar
    49   29   48 1
    50   30   31 ar
    51   30   49 1
    52   31   32 ar
    53   31   33 1
    54   32   50 1
@<TRIPOS>MOLECULE
ZINC39890890
   69    74     0     0     0
SMALL
USER_CHARGES

@<TRIPOS>ATOM
      1 C1          2.8536   -0.5314    2.3026 C.3       1 <0>        -0.1195
      2 C2          2.3297    0.2578    3.4746 C.ar      1 <0>        -0.0769
      3 C3          3.1828    0.6213    4.5001 C.ar      1 <0>        -0.1196
      4 C4          2.7022    1.3450    5.5750 C.ar      1 <0>        -0.1138
      5 C5          1.3685    1.7059    5.6246 C.ar      1 <0>        -0.1164
      6 C6          0.5158    1.3433    4.5990 C.ar      1 <0>        -0.1002
      7 C7          0.9975    0.6230    3.5217 C.ar      1 <0>        -0.1162
      8 C8          0.0689    0.2321    2.4009 C.3       1 <0>         0.1556
      9 N1         -1.2427    0.8482    2.6161 N.am      1 <0>        -0.5435
     10 C9         -1.6243    2.0638    2.0761 C.ar      1 <0>         0.1694
     11 C10        -0.9047    2.9336    1.2553 C.ar      1 <0>        -0.1334
     12 C11        -1.5390    4.0998    0.8567 C.ar      1 <0>        -0.0677
     13 C12        -2.8279    4.4007    1.2476 C.ar      1 <0>        -0.1434
     14 C13        -3.5563    3.5419    2.0636 C.ar      1 <0>        -0.0344
     15 C14        -2.9326    2.3798    2.4640 C.ar      1 <0>        -0.1547
     16 C15        -3.3985    1.2468    3.3203 C.3       1 <0>         0.2305
     17 C16        -2.2236    0.2944    3.3597 C.2       1 <0>         0.5354
     18 O1         -2.1720   -0.7641    3.9495 O.2       1 <0>        -0.4578
     19 C17        -3.7989    1.6856    4.6851 C.2       1 <0>        -0.2453
     20 C18        -3.0617    2.3983    5.7340 C.2       1 <0>         0.4564
     21 O2         -1.9719    2.9114    5.5513 O.2       1 <0>        -0.4275
     22 C19        -3.7688    2.4363    7.0387 C.ar      1 <0>        -0.2090
     23 C20        -3.1204    2.9069    8.1804 C.ar      1 <0>        -0.0281
     24 C21        -3.7828    2.9288    9.3760 C.ar      1 <0>        -0.1061
     25 C22        -5.0953    2.4848    9.4558 C.ar      1 <0>        -0.0187
     26 C23        -5.7519    2.0202    8.3385 C.ar      1 <0>        -0.1312
     27 C24        -5.0992    1.9913    7.1060 C.ar      1 <0>         0.1378
     28 O3         -5.7677    1.5452    6.0185 O.3       1 <0>        -0.1754
     29 C25        -5.0961    1.2979    4.8771 C.2       1 <0>         0.1116
     30 C26        -5.5589    0.6106    3.6580 C.2       1 <0>         0.5774
     31 O4         -6.6683    0.1405    3.5022 O.2       1 <0>        -0.4696
     32 N2         -4.5696    0.5804    2.7394 N.am      1 <0>        -0.5747
     33 C27        -4.6510   -0.0119    1.4019 C.3       1 <0>         0.1403
     34 C28        -4.2248   -1.4798    1.4674 C.3       1 <0>        -0.1448
     35 C29        -4.3098   -2.0984    0.0706 C.3       1 <0>         0.0676
     36 O5         -3.9118   -3.4695    0.1318 O.3       1 <0>        -0.3891
     37 C30        -3.9554   -4.1441   -1.1272 C.3       1 <0>         0.0312
     38 C31        -5.8105    2.5111   10.7820 C.3       1 <0>        -0.1265
     39 C32        -3.0856    3.4373   10.6115 C.3       1 <0>        -0.1186
     40 H1          3.1067    0.1496    1.4900 H         1 <0>         0.0731
     41 H2          3.7438   -1.0831    2.6048 H         1 <0>         0.0700
     42 H3          2.0894   -1.2316    1.9652 H         1 <0>         0.0664
     43 H4          4.2246    0.3394    4.4613 H         1 <0>         0.1238
     44 H5          3.3685    1.6284    6.3764 H         1 <0>         0.1223
     45 H6          0.9928    2.2709    6.4649 H         1 <0>         0.1209
     46 H7         -0.5261    1.6249    4.6380 H         1 <0>         0.1282
     47 H8          0.4804    0.5755    1.4518 H         1 <0>         0.1039
     48 H9         -0.0382   -0.8524    2.3794 H         1 <0>         0.1042
     49 H10         0.1042    2.7072    0.9434 H         1 <0>         0.1379
     50 H11        -1.0086    4.7938    0.2215 H         1 <0>         0.1322
     51 H12        -3.2804    5.3222    0.9125 H         1 <0>         0.1311
     52 H13        -4.5654    3.7750    2.3698 H         1 <0>         0.1343
     53 H14        -2.0988    3.2523    8.1201 H         1 <0>         0.1455
     54 H15        -6.7731    1.6773    8.4163 H         1 <0>         0.1494
     55 H16        -5.6763    0.0529    1.0377 H         1 <0>         0.1049
     56 H17        -3.9900    0.5285    0.7244 H         1 <0>         0.0947
     57 H18        -3.1995   -1.5446    1.8316 H         1 <0>         0.0760
     58 H19        -4.8859   -2.0203    2.1449 H         1 <0>         0.0835
     59 H20        -5.3352   -2.0336   -0.2936 H         1 <0>         0.0555
     60 H21        -3.6488   -1.5580   -0.6069 H         1 <0>         0.0515
     61 H22        -4.9733   -4.1218   -1.5163 H         1 <0>         0.0432
     62 H23        -3.2870   -3.6461   -1.8296 H         1 <0>         0.0420
     63 H24        -3.6391   -5.1789   -0.9961 H         1 <0>         0.0880
     64 H25        -6.3168    3.4687   10.9029 H         1 <0>         0.0839
     65 H26        -6.5440    1.7055   10.8153 H         1 <0>         0.0759
     66 H27        -5.0879    2.3780   11.5872 H         1 <0>         0.0812
     67 H28        -3.2518    4.5103   10.7068 H         1 <0>         0.0772
     68 H29        -3.4845    2.9285   11.4891 H         1 <0>         0.0765
     69 H30        -2.0164    3.2408   10.5323 H         1 <0>         0.0713
@<TRIPOS>BOND
     1    1    2 1
     2    1   40 1
     3    1   41 1
     4    1   42 1
     5    2    7 ar
     6    2    3 ar
     7    3    4 ar
     8    3   43 1
     9    4    5 ar
    10    4   44 1
    11    5    6 ar
    12    5   45 1
    13    6    7 ar
    14    6   46 1
    15    7    8 1
    16    8    9 1
    17    8   47 1
    18    8   48 1
    19    9   17 am
    20    9   10 1
    21   10   15 ar
    22   10   11 ar
    23   11   12 ar
    24   11   49 1
    25   12   13 ar
    26   12   50 1
    27   13   14 ar
    28   13   51 1
    29   14   15 ar
    30   14   52 1
    31   15   16 1
    32   16   32 1
    33   16   17 1
    34   16   19 1
    35   17   18 2
    36   19   29 2
    37   19   20 1
    38   20   21 2
    39   20   22 1
    40   22   27 ar
    41   22   23 ar
    42   23   24 ar
    43   23   53 1
    44   24   25 ar
    45   24   39 1
    46   25   26 ar
    47   25   38 1
    48   26   27 ar
    49   26   54 1
    50   27   28 1
    51   28   29 1
    52   29   30 1
    53   30   31 2
    54   30   32 am
    55   32   33 1
    56   33   34 1
    57   33   55 1
    58   33   56 1
    59   34   35 1
    60   34   57 1
    61   34   58 1
    62   35   36 1
    63   35   59 1
    64   35   60 1
    65   36   37 1
    66   37   61 1
    67   37   62 1
    68   37   63 1
    69   38   64 1
    70   38   65 1
    71   38   66 1
    72   39   67 1
    73   39   68 1
    74   39   69 1
@<TRIPOS>MOLECULE
ZINC12591495
   51    54     0     0     0
SMALL
USER_CHARGES

@<TRIPOS>ATOM
      1 C1          0.1524    1.4245    0.0783 C.3       1 <0>        -0.0819
      2 C2          0.2653   -0.0783    0.0733 C.2       1 <0>         0.1292
      3 C3          0.2713   -0.9067   -1.0732 C.2       1 <0>        -0.2082
      4 C4          0.3914   -2.2130   -0.6315 C.2       1 <0>         0.1797
      5 N1          0.4548   -2.1765    0.7144 N.pl3     1 <0>        -0.3061
      6 N2          0.3802   -0.8411    1.1255 N.2       1 <0>        -0.2648
      7 C5          0.5793   -3.2881    1.5592 C.ar      1 <0>         0.1385
      8 C6         -0.0349   -4.4876    1.2251 C.ar      1 <0>        -0.1109
      9 C7          0.0896   -5.5816    2.0589 C.ar      1 <0>        -0.0871
     10 C8          0.8258   -5.4828    3.2265 C.ar      1 <0>        -0.0298
     11 C9          1.4385   -4.2881    3.5620 C.ar      1 <0>        -0.0910
     12 C10         1.3217   -3.1930    2.7287 C.ar      1 <0>        -0.0862
     13 Cl1         0.9805   -6.8597    4.2725 Cl        1 <0>        -0.0533
     14 Cl2         0.4486   -3.6346   -1.6262 Cl        1 <0>         0.0436
     15 C11         0.1685   -0.4639   -2.4707 C.2       1 <0>         0.2546
     16 N3          0.1872   -1.3411   -3.4359 N.2       1 <0>        -0.4879
     17 C12         0.0915   -0.9284   -4.7380 C.ar      1 <0>         0.0860
     18 C13        -0.8529    0.0345   -5.1008 C.ar      1 <0>        -0.0915
     19 C14        -0.9440    0.4462   -6.4138 C.ar      1 <0>        -0.1053
     20 C15        -0.1019   -0.0933   -7.3718 C.ar      1 <0>         0.0382
     21 C16         0.8360   -1.0486   -7.0187 C.ar      1 <0>        -0.6592
     22 C17         0.9414   -1.4643   -5.7075 C.ar      1 <0>         0.0014
     23 S1          1.9019   -1.7297   -8.2452 S.o2      1 <0>         2.6872
     24 O1          2.3998   -0.6359   -9.0035 O.2       1 <0>        -0.9338
     25 O2          2.7583   -2.6452   -7.5761 O.2       1 <0>        -0.9443
     26 N4          0.9592   -2.6260   -9.2701 N.pl3     1 <0>        -0.9941
     27 C18         0.5681   -4.0031   -8.9299 C.3       1 <0>         0.0866
     28 C19        -0.9496   -4.1317   -9.1040 C.3       1 <0>         0.0468
     29 O3         -1.3145   -3.6716  -10.4074 O.3       1 <0>        -0.3727
     30 C20        -1.0261   -2.2913  -10.6429 C.3       1 <0>         0.0450
     31 C21         0.4829   -2.0666  -10.5451 C.3       1 <0>         0.0801
     32 Cl3        -0.2233    0.4299   -9.0227 Cl        1 <0>        -0.0392
     33 H1          1.1485    1.8639    0.0241 H         1 <0>         0.0914
     34 H2         -0.4345    1.7476   -0.7815 H         1 <0>         0.0860
     35 H3         -0.3383    1.7490    0.9958 H         1 <0>         0.0865
     36 H4         -0.6098   -4.5651    0.3141 H         1 <0>         0.1427
     37 H5         -0.3882   -6.5148    1.7996 H         1 <0>         0.1485
     38 H6          2.0122   -4.2134    4.4740 H         1 <0>         0.1482
     39 H7          1.8038   -2.2622    2.9887 H         1 <0>         0.1473
     40 H8          0.0776    0.5879   -2.6985 H         1 <0>         0.1218
     41 H9         -1.5106    0.4554   -4.3547 H         1 <0>         0.1429
     42 H10        -1.6738    1.1908   -6.6956 H         1 <0>         0.1477
     43 H11         1.6764   -2.2062   -5.4324 H         1 <0>         0.1582
     44 H12         1.0744   -4.7033   -9.5944 H         1 <0>         0.0897
     45 H13         0.8384   -4.2167   -7.8958 H         1 <0>         0.0967
     46 H14        -1.2418   -5.1757   -8.9913 H         1 <0>         0.1094
     47 H15        -1.4549   -3.5280   -8.3501 H         1 <0>         0.0555
     48 H16        -1.3735   -2.0113  -11.6374 H         1 <0>         0.1086
     49 H17        -1.5318   -1.6810   -9.8946 H         1 <0>         0.0580
     50 H18         0.6968   -0.9983  -10.5800 H         1 <0>         0.1041
     51 H19         0.9805   -2.5685  -11.3749 H         1 <0>         0.0874
@<TRIPOS>BOND
     1    1    2 1
     2    1   33 1
     3    1   34 1
     4    1   35 1
     5    2    6 2
     6    2    3 1
     7    3    4 2
     8    3   15 1
     9    4    5 1
    10    4   14 1
    11    5    6 1
    12    5    7 1
    13    7   12 ar
    14    7    8 ar
    15    8    9 ar
    16    8   36 1
    17    9   10 ar
    18    9   37 1
    19   10   11 ar
    20   10   13 1
    21   11   12 ar
    22   11   38 1
    23   12   39 1
    24   15   16 2
    25   15   40 1
    26   16   17 1
    27   17   22 ar
    28   17   18 ar
    29   18   19 ar
    30   18   41 1
    31   19   20 ar
    32   19   42 1
    33   20   21 ar
    34   20   32 1
    35   21   22 ar
    36   21   23 1
    37   22   43 1
    38   23   24 2
    39   23   25 2
    40   23   26 1
    41   26   31 1
    42   26   27 1
    43   27   28 1
    44   27   44 1
    45   27   45 1
    46   28   29 1
    47   28   46 1
    48   28   47 1
    49   29   30 1
    50   30   31 1
    51   30   48 1
    52   30   49 1
    53   31   50 1
    54   31   51 1
@<TRIPOS>MOLECULE
ZINC10525596
   62    65     0     0     0
SMALL
USER_CHARGES
7-[1-(3,4-dihydro-2H-quinolin-1-ylcarbonyl)ethylsulfanyl]-2-isobutyl-4,9-dimethyl-2,4,8,10-tetrazabicyclo[4.4.0]deca-6,8,10-triene-3,5-dione
@<TRIPOS>ATOM
      1 C1          4.4820   -0.7086    7.1613 C.3       1 <0>        -0.0920
      2 C2          5.1436    0.5822    6.7525 C.ar      1 <0>         0.4042
      3 N1          6.1233    1.0548    7.5008 N.ar      1 <0>        -0.5543
      4 C3          6.7321    2.1868    7.1764 C.ar      1 <0>         0.4706
      5 C4          6.3152    2.8748    6.0209 C.ar      1 <0>        -0.3054
      6 C5          5.2701    2.3360    5.2554 C.ar      1 <0>         0.2234
      7 N2          4.7162    1.1937    5.6666 N.ar      1 <0>        -0.5501
      8 S1          4.7011    3.1473    3.7984 S.3       1 <0>         0.1562
      9 C6          3.3965    2.0006    3.2893 C.3       1 <0>        -0.1525
     10 H1          3.8115    0.9972    3.1942 H         1 <0>         0.1285
     11 C7          2.2840    1.9950    4.3396 C.3       1 <0>        -0.1424
     12 C8          2.8324    2.4387    1.9623 C.2       1 <0>         0.5365
     13 O1          3.0033    3.5757    1.5764 O.2       1 <0>        -0.4982
     14 N3          2.1379    1.5670    1.2045 N.am      1 <0>        -0.5446
     15 C9          2.0341    0.1545    1.5957 C.3       1 <0>         0.0964
     16 C10         2.2723   -0.6975    0.3421 C.3       1 <0>        -0.1365
     17 C11         1.1638   -0.4088   -0.6698 C.3       1 <0>        -0.0790
     18 C12         1.0259    1.0742   -0.8926 C.ar      1 <0>        -0.1141
     19 C13         1.5024    1.9926    0.0298 C.ar      1 <0>         0.1519
     20 C14         1.3546    3.3546   -0.2045 C.ar      1 <0>        -0.1489
     21 C15         0.7351    3.7943   -1.3575 C.ar      1 <0>        -0.1020
     22 C16         0.2623    2.8778   -2.2784 C.ar      1 <0>        -0.1363
     23 C17         0.4070    1.5234   -2.0469 C.ar      1 <0>        -0.1007
     24 C18         6.9920    4.1263    5.6677 C.2       1 <0>         0.5689
     25 O2          6.6673    4.7559    4.6788 O.2       1 <0>        -0.4653
     26 N4          7.9882    4.5601    6.4725 N.am      1 <0>        -0.5578
     27 C19         8.3498    3.8680    7.5645 C.2       1 <0>         0.7075
     28 O3          9.2520    4.3012    8.2546 O.2       1 <0>        -0.5156
     29 N5          7.7584    2.7165    7.9284 N.am      1 <0>        -0.5183
     30 C20         8.2094    2.0185    9.1349 C.3       1 <0>         0.1196
     31 C21         9.3238    1.0360    8.7691 C.3       1 <0>        -0.1085
     32 C22        10.5444    1.8120    8.2703 C.3       1 <0>        -0.1434
     33 C23         9.7088    0.2187   10.0040 C.3       1 <0>        -0.1424
     34 C24         8.6851    5.8070    6.1471 C.3       1 <0>         0.0787
     35 H2          3.6407   -0.4930    7.8199 H         1 <0>         0.0974
     36 H3          4.1242   -1.2304    6.2737 H         1 <0>         0.0940
     37 H4          5.2026   -1.3360    7.6858 H         1 <0>         0.0946
     38 H5          1.8690    2.9984    4.4347 H         1 <0>         0.0695
     39 H6          1.4984    1.3044    4.0330 H         1 <0>         0.0707
     40 H7          2.6920    1.6781    5.2994 H         1 <0>         0.0933
     41 H8          1.0398   -0.0459    1.9948 H         1 <0>         0.0832
     42 H9          2.7882   -0.0766    2.3480 H         1 <0>         0.0958
     43 H10         2.2560   -1.7539    0.6102 H         1 <0>         0.0895
     44 H11         3.2390   -0.4443   -0.0931 H         1 <0>         0.0741
     45 H12         1.4050   -0.8938   -1.6157 H         1 <0>         0.0822
     46 H13         0.2208   -0.8052   -0.2931 H         1 <0>         0.0794
     47 H14         1.7248    4.0694    0.5155 H         1 <0>         0.1653
     48 H15         0.6204    4.8526   -1.5399 H         1 <0>         0.1257
     49 H16        -0.2212    3.2215   -3.1809 H         1 <0>         0.1227
     50 H17         0.0360    0.8119   -2.7697 H         1 <0>         0.1252
     51 H18         8.5869    2.7445    9.8549 H         1 <0>         0.1035
     52 H19         7.3735    1.4731    9.5730 H         1 <0>         0.1067
     53 H20         8.9739    0.3655    7.9843 H         1 <0>         0.0740
     54 H21        10.2702    2.3942    7.3906 H         1 <0>         0.0439
     55 H22        10.8943    2.4825    9.0552 H         1 <0>         0.0660
     56 H23        11.3384    1.1121    8.0097 H         1 <0>         0.0549
     57 H24         8.8392   -0.3341   10.3594 H         1 <0>         0.0603
     58 H25        10.5027   -0.4812    9.7434 H         1 <0>         0.0621
     59 H26        10.0587    0.8893   10.7889 H         1 <0>         0.0599
     60 H27         9.5397    5.5891    5.5066 H         1 <0>         0.0777
     61 H28         8.0030    6.4792    5.6266 H         1 <0>         0.0972
     62 H29         9.0310    6.2803    7.0660 H         1 <0>         0.0970
@<TRIPOS>BOND
     1    1    2 1
     2    1   35 1
     3    1   36 1
     4    1   37 1
     5    2    7 ar
     6    2    3 ar
     7    3    4 ar
     8    4   29 1
     9    4    5 ar
    10    5    6 ar
    11    5   24 1
    12    6    7 ar
    13    6    8 1
    14    8    9 1
    15    9   10 1
    16    9   11 1
    17    9   12 1
    18   11   38 1
    19   11   39 1
    20   11   40 1
    21   12   13 2
    22   12   14 am
    23   14   19 1
    24   14   15 1
    25   15   16 1
    26   15   41 1
    27   15   42 1
    28   16   17 1
    29   16   43 1
    30   16   44 1
    31   17   18 1
    32   17   45 1
    33   17   46 1
    34   18   23 ar
    35   18   19 ar
    36   19   20 ar
    37   20   21 ar
    38   20   47 1
    39   21   22 ar
    40   21   48 1
    41   22   23 ar
    42   22   49 1
    43   23   50 1
    44   24   25 2
    45   24   26 am
    46   26   27 am
    47   26   34 1
    48   27   28 2
    49   27   29 am
    50   29   30 1
    51   30   31 1
    52   30   51 1
    53   30   52 1
    54   31   32 1
    55   31   33 1
    56   31   53 1
    57   32   54 1
    58   32   55 1
    59   32   56 1
    60   33   57 1
    61   33   58 1
    62   33   59 1
    63   34   60 1
    64   34   61 1
    65   34   62 1
@<TRIPOS>MOLECULE
ZINC13644064
   48    52     0     0     0
SMALL
USER_CHARGES
methyl-[(3S)-1-methylsulfonyl-3-piperidyl]-(trifluoromethyl)BLAH
@<TRIPOS>ATOM
      1 C1         -3.9550    4.2493    7.4908 C.3       1 <0>        -0.1293
      2 C2         -4.7950    4.8247    6.3798 C.ar      1 <0>         0.0412
      3 C3         -5.9048    5.5884    6.6655 C.ar      1 <0>        -0.1381
      4 C4         -6.6739    6.1147    5.6406 C.ar      1 <0>         0.0914
      5 N1         -6.3518    5.8901    4.3808 N.ar      1 <0>        -0.4053
      6 C5         -5.3004    5.1664    4.0612 C.ar      1 <0>         0.1032
      7 C6         -4.4566    4.5886    5.0276 C.ar      1 <0>        -0.1082
      8 C7         -3.3195    3.8060    4.5084 C.2       1 <0>         0.1565
      9 C8         -3.2147    3.7309    3.1212 C.2       1 <0>        -0.1658
     10 S1         -4.5867    4.6724    2.5118 S.3       1 <0>         0.2420
     11 C9         -2.1742    3.0145    2.5137 C.2       1 <0>         0.3487
     12 N2         -1.8163    2.7658    1.2638 N.2       1 <0>        -0.5126
     13 C10        -0.7229    2.0144    1.2507 C.2       1 <0>         0.2781
     14 N3         -0.3513    1.7548    2.4820 N.2       1 <0>        -0.2924
     15 N4         -1.2642    2.3909    3.3303 N.pl3     1 <0>        -0.3282
     16 C11        -1.4030    2.4892    4.6775 C.2       1 <0>         0.3876
     17 N5         -2.3676    3.1534    5.2331 N.2       1 <0>        -0.4613
     18 C12        -0.0187    1.5277    0.0104 C.3       1 <0>        -0.0141
     19 H1         -0.5451    1.8893   -0.8729 H         1 <0>         0.1111
     20 C13         1.4185    2.0534   -0.0005 C.3       1 <0>        -0.1095
     21 C14         2.1245    1.5870   -1.2757 C.3       1 <0>        -0.1344
     22 C15         2.1696    0.0559   -1.2987 C.3       1 <0>         0.1162
     23 N6          0.8027   -0.4599   -1.1425 N.pl3     1 <0>        -0.9973
     24 C16         0.0021   -0.0041    0.0020 C.3       1 <0>         0.1303
     25 S2          0.1765   -1.5349   -2.2355 S.o2      1 <0>         2.6086
     26 O1          1.3085   -2.1991   -2.7801 O.2       1 <0>        -0.9503
     27 O2         -0.8080   -2.2580   -1.5096 O.2       1 <0>        -0.9522
     28 C17        -0.6129   -0.5047   -3.5029 C.3       1 <0>        -0.6747
     29 C18        -7.8857    6.9493    5.9664 C.3       1 <0>         0.5271
     30 F1         -8.5612    7.2718    4.7845 F         1 <0>        -0.1563
     31 F2         -8.7376    6.2260    6.8079 F         1 <0>        -0.1638
     32 F3         -7.4832    8.1249    6.6091 F         1 <0>        -0.1639
     33 H2         -4.3348    3.2638    7.7605 H         1 <0>         0.0920
     34 H3         -2.9213    4.1614    7.1566 H         1 <0>         0.0987
     35 H4         -4.0014    4.9066    8.3591 H         1 <0>         0.0820
     36 H5         -6.1769    5.7777    7.6934 H         1 <0>         0.1623
     37 H6         -0.6814    1.9947    5.3109 H         1 <0>         0.2252
     38 H7          1.4069    3.1429    0.0304 H         1 <0>         0.0719
     39 H8          1.9516    1.6714    0.8702 H         1 <0>         0.0785
     40 H9          3.1406    1.9811   -1.2940 H         1 <0>         0.0859
     41 H10         1.5780    1.9480   -2.1469 H         1 <0>         0.0718
     42 H11         2.7916   -0.3037   -0.4790 H         1 <0>         0.0796
     43 H12         2.5818   -0.2833   -2.2490 H         1 <0>         0.0965
     44 H13         0.4474   -0.3686    0.9277 H         1 <0>         0.0874
     45 H14        -1.0161   -0.3828   -0.0876 H         1 <0>         0.0970
     46 H15         0.1334    0.1457   -3.9591 H         1 <0>         0.1288
     47 H16        -1.0541   -1.1438   -4.2676 H         1 <0>         0.1298
     48 H17        -1.3923    0.1032   -3.0433 H         1 <0>         0.1283
@<TRIPOS>BOND
     1    1    2 1
     2    1   33 1
     3    1   34 1
     4    1   35 1
     5    2    7 ar
     6    2    3 ar
     7    3    4 ar
     8    3   36 1
     9    4    5 ar
    10    4   29 1
    11    5    6 ar
    12    6   10 1
    13    6    7 ar
    14    7    8 1
    15    8   17 1
    16    8    9 2
    17    9   10 1
    18    9   11 1
    19   11   15 1
    20   11   12 2
    21   12   13 1
    22   13   14 2
    23   13   18 1
    24   14   15 1
    25   15   16 1
    26   16   17 2
    27   16   37 1
    28   18   19 1
    29   18   24 1
    30   18   20 1
    31   20   21 1
    32   20   38 1
    33   20   39 1
    34   21   22 1
    35   21   40 1
    36   21   41 1
    37   22   23 1
    38   22   42 1
    39   22   43 1
    40   23   24 1
    41   23   25 1
    42   24   44 1
    43   24   45 1
    44   25   26 2
    45   25   27 2
    46   25   28 1
    47   28   46 1
    48   28   47 1
    49   28   48 1
    50   29   30 1
    51   29   31 1
    52   29   32 1
@<TRIPOS>MOLECULE
ZINC21885369
   54    58     0     0     0
SMALL
USER_CHARGES
(2R)-4-[2-[4-(1,2-benzothiazole-3-carbonyl)piperazin-1-yl]-2-oxo-ethyl]-2-methyl-1,4-benzoxazin-3-one
@<TRIPOS>ATOM
      1 C1          0.6181   16.3154   -2.7369 C.3       1 <0>        -0.1369
      2 C2          1.3603   15.6664   -1.5669 C.3       1 <0>         0.0836
      3 H1          2.4005   16.0178   -1.4991 H         1 <0>         0.1054
      4 C3          1.3262   14.1669   -1.7173 C.2       1 <0>         0.4981
      5 O1          1.2608   13.6671   -2.8205 O.2       1 <0>        -0.4997
      6 N1          1.3637   13.3821   -0.6184 N.am      1 <0>        -0.5349
      7 C4          1.4092   13.9858    0.6463 C.ar      1 <0>         0.1003
      8 C5          1.7708   13.2560    1.7666 C.ar      1 <0>        -0.1269
      9 C6          1.8084   13.8706    3.0049 C.ar      1 <0>        -0.1095
     10 C7          1.4867   15.2099    3.1267 C.ar      1 <0>        -0.1083
     11 C8          1.1246   15.9440    2.0118 C.ar      1 <0>        -0.1071
     12 C9          1.0851   15.3359    0.7692 C.ar      1 <0>         0.0864
     13 O2          0.7336   16.0429   -0.3379 O.3       1 <0>        -0.3029
     14 C10         1.3629   11.9227   -0.7463 C.3       1 <0>         0.0864
     15 C11        -0.0572   11.4185   -0.7372 C.2       1 <0>         0.5033
     16 O3         -0.9780   12.2011   -0.6340 O.2       1 <0>        -0.5174
     17 N2         -0.3041   10.0978   -0.8437 N.am      1 <0>        -0.6127
     18 C12        -1.6838    9.5918   -0.8362 C.3       1 <0>         0.0974
     19 C13        -1.8154    8.5436    0.2757 C.3       1 <0>         0.0985
     20 N3         -0.7097    7.5838    0.1495 N.am      1 <0>        -0.5950
     21 C14         0.6703    8.0893    0.1477 C.3       1 <0>         0.0665
     22 C15         0.8017    9.1380   -0.9699 C.3       1 <0>         0.0890
     23 C16        -0.9565    6.2631    0.0430 C.2       1 <0>         0.5896
     24 O4         -2.0937    5.8693   -0.1326 O.2       1 <0>        -0.5181
     25 C17         0.1516    5.2962    0.1393 C.2       1 <0>         0.0757
     26 C18        -0.0686    3.8789   -0.1298 C.ar      1 <0>        -0.0977
     27 C19        -1.2172    3.1563   -0.4967 C.ar      1 <0>        -0.0394
     28 C20        -1.1426    1.8101   -0.6944 C.ar      1 <0>        -0.1177
     29 C21         0.0517    1.1197   -0.5310 C.ar      1 <0>        -0.0775
     30 C22         1.1901    1.7939   -0.1739 C.ar      1 <0>        -0.0731
     31 C23         1.1348    3.1570    0.0252 C.ar      1 <0>        -0.1700
     32 S1          2.2883    4.4198    0.4775 S.3       1 <0>         0.3367
     33 N4          1.3536    5.6879    0.4670 N.2       1 <0>        -0.4513
     34 H2          1.0999   16.0260   -3.6825 H         1 <0>         0.0938
     35 H3          0.6494   17.4097   -2.6292 H         1 <0>         0.0834
     36 H4         -0.4286   15.9771   -2.7401 H         1 <0>         0.0740
     37 H5          2.0229   12.2100    1.6734 H         1 <0>         0.1286
     38 H6          2.0903   13.3030    3.8793 H         1 <0>         0.1327
     39 H7          1.5180   15.6846    4.0963 H         1 <0>         0.1356
     40 H8          0.8731   16.9896    2.1107 H         1 <0>         0.1407
     41 H9          1.8473   11.6372   -1.6917 H         1 <0>         0.1255
     42 H10         1.9145   11.4804    0.0964 H         1 <0>         0.1193
     43 H11        -2.3785   10.4241   -0.6500 H         1 <0>         0.1089
     44 H12        -1.9120    9.1346   -1.8103 H         1 <0>         0.0770
     45 H13        -1.7692    9.0409    1.2558 H         1 <0>         0.0789
     46 H14        -2.7780    8.0209    0.1748 H         1 <0>         0.1110
     47 H15         0.8941    8.5478    1.1222 H         1 <0>         0.0778
     48 H16         1.3656    7.2565   -0.0340 H         1 <0>         0.1507
     49 H17         0.7504    8.6467   -1.9527 H         1 <0>         0.0805
     50 H18         1.7605    9.6687   -0.8749 H         1 <0>         0.0970
     51 H19        -2.1587    3.6693   -0.6264 H         1 <0>         0.1481
     52 H20        -2.0318    1.2677   -0.9801 H         1 <0>         0.1367
     53 H21         0.0840    0.0520   -0.6898 H         1 <0>         0.1400
     54 H22         2.1219    1.2622   -0.0493 H         1 <0>         0.1392
@<TRIPOS>BOND
     1    1    2 1
     2    1   34 1
     3    1   35 1
     4    1   36 1
     5    2    3 1
     6    2   13 1
     7    2    4 1
     8    4    5 2
     9    4    6 am
    10    6    7 1
    11    6   14 1
    12    7   12 ar
    13    7    8 ar
    14    8    9 ar
    15    8   37 1
    16    9   10 ar
    17    9   38 1
    18   10   11 ar
    19   10   39 1
    20   11   12 ar
    21   11   40 1
    22   12   13 1
    23   14   15 1
    24   14   41 1
    25   14   42 1
    26   15   16 2
    27   15   17 am
    28   17   22 1
    29   17   18 1
    30   18   19 1
    31   18   43 1
    32   18   44 1
    33   19   20 1
    34   19   45 1
    35   19   46 1
    36   20   21 1
    37   20   23 am
    38   21   22 1
    39   21   47 1
    40   21   48 1
    41   22   49 1
    42   22   50 1
    43   23   24 2
    44   23   25 1
    45   25   33 2
    46   25   26 1
    47   26   31 ar
    48   26   27 ar
    49   27   28 ar
    50   27   51 1
    51   28   29 ar
    52   28   52 1
    53   29   30 ar
    54   29   53 1
    55   30   31 ar
    56   30   54 1
    57   31   32 1
    58   32   33 1
@<TRIPOS>MOLECULE
ZINC08596923
   64    68     0     0     0
SMALL
USER_CHARGES

@<TRIPOS>ATOM
      1 C1         -0.0242    1.4863   -0.0022 C.3       1 <0>        -0.1149
      2 C2          0.0021   -0.0205   -0.0066 C.ar      1 <0>        -0.0854
      3 C3          0.0109   -0.7076   -1.2069 C.ar      1 <0>        -0.1192
      4 C4          0.0345   -2.0900   -1.2155 C.ar      1 <0>        -0.1114
      5 C5          0.0498   -2.7895   -0.0246 C.ar      1 <0>        -0.0962
      6 C6          0.0414   -2.1026    1.1826 C.ar      1 <0>         0.1696
      7 C7          0.0229   -0.7134    1.1876 C.ar      1 <0>        -0.1209
      8 N1          0.0568   -2.8067    2.3887 N.pl3     1 <0>        -0.6723
      9 C8          1.3298   -3.1569    3.0342 C.3       1 <0>         0.1343
     10 C9          1.3189   -2.6112    4.4675 C.3       1 <0>         0.0981
     11 N2          0.0623   -3.0148    5.1141 N.am      1 <0>        -0.5950
     12 C10        -1.2107   -2.6646    4.4686 C.3       1 <0>         0.0949
     13 C11        -1.1999   -3.2054    3.0381 C.3       1 <0>         0.1339
     14 C12         0.0771   -3.6943    6.2780 C.2       1 <0>         0.6041
     15 O1          1.1345   -4.0608    6.7548 O.2       1 <0>        -0.5228
     16 C13        -1.1856   -3.9927    6.9718 C.2       1 <0>        -0.1892
     17 C14        -1.9199   -5.1353    6.8881 C.2       1 <0>         0.0876
     18 O2         -3.0061   -5.0340    7.6660 O.3       1 <0>        -0.1664
     19 C15        -3.0510   -3.8461    8.2938 C.ar      1 <0>         0.3099
     20 C16        -1.9156   -3.1194    7.9070 C.ar      1 <0>        -0.2123
     21 C17        -1.7210   -1.8368    8.4303 C.ar      1 <0>         0.4926
     22 N3         -2.6259   -1.3581    9.2811 N.ar      1 <0>        -0.5312
     23 C18        -3.6800   -2.0754    9.6222 C.ar      1 <0>         0.3623
     24 N4         -3.9027   -3.2825    9.1467 N.ar      1 <0>        -0.5049
     25 C19        -4.6735   -1.4850   10.5893 C.3       1 <0>        -0.0834
     26 N5         -0.6156   -1.0849    8.0729 N.pl3     1 <0>        -0.6608
     27 C20        -0.6910   -0.0969    6.9850 C.3       1 <0>         0.1172
     28 C21        -0.1254    1.2321    7.4988 C.3       1 <0>         0.0470
     29 O3          1.1687    1.0063    8.0627 O.3       1 <0>        -0.3768
     30 C22         1.1692    0.1357    9.1967 C.3       1 <0>         0.0485
     31 C23         0.6684   -1.2454    8.7737 C.3       1 <0>         0.1158
     32 C24        -1.5651   -6.3340    6.0466 C.3       1 <0>        -0.0837
     33 C25         0.0750   -4.2962   -0.0349 C.3       1 <0>        -0.1060
     34 H1          0.9970    1.8675   -0.0086 H         1 <0>         0.0702
     35 H2         -0.5508    1.8431   -0.8873 H         1 <0>         0.0663
     36 H3         -0.5376    1.8381    0.8927 H         1 <0>         0.0647
     37 H4         -0.0009   -0.1631   -2.1395 H         1 <0>         0.1211
     38 H5          0.0407   -2.6235   -2.1545 H         1 <0>         0.1217
     39 H6          0.0204   -0.1761    2.1245 H         1 <0>         0.1190
     40 H7          1.4428   -4.2408    3.0563 H         1 <0>         0.0572
     41 H8          2.1558   -2.7117    2.4796 H         1 <0>         0.0827
     42 H9          2.1634   -3.0211    5.0215 H         1 <0>         0.0998
     43 H10         1.3860   -1.5235    4.4454 H         1 <0>         0.0718
     44 H11        -2.0367   -3.1098    5.0232 H         1 <0>         0.0834
     45 H12        -1.3237   -1.5807    4.4465 H         1 <0>         0.0709
     46 H13        -2.0441   -2.7923    2.4861 H         1 <0>         0.0823
     47 H14        -1.2711   -4.2929    3.0605 H         1 <0>         0.0558
     48 H15        -5.4401   -0.9420   10.0365 H         1 <0>         0.0923
     49 H16        -5.1389   -2.2847   11.1656 H         1 <0>         0.0916
     50 H17        -4.1602   -0.8013   11.2655 H         1 <0>         0.0926
     51 H18        -0.1030   -0.4418    6.1345 H         1 <0>         0.0671
     52 H19        -1.7296    0.0383    6.6833 H         1 <0>         0.0752
     53 H20        -0.0441    1.9372    6.6716 H         1 <0>         0.1011
     54 H21        -0.7889    1.6395    8.2616 H         1 <0>         0.0580
     55 H22         2.1819    0.0521    9.5911 H         1 <0>         0.1037
     56 H23         0.5104    0.5392    9.9657 H         1 <0>         0.0566
     57 H24         0.5295   -1.8703    9.6559 H         1 <0>         0.0765
     58 H25         1.3956   -1.7079    8.1063 H         1 <0>         0.0718
     59 H26        -0.9519   -7.0198    6.6312 H         1 <0>         0.1004
     60 H27        -2.4778   -6.8404    5.7325 H         1 <0>         0.0937
     61 H28        -1.0090   -6.0089    5.1673 H         1 <0>         0.0963
     62 H29         1.1086   -4.6423   -0.0405 H         1 <0>         0.0659
     63 H30        -0.4299   -4.6742    0.8540 H         1 <0>         0.0666
     64 H31        -0.4354   -4.6620   -0.9259 H         1 <0>         0.0610
@<TRIPOS>BOND
     1    1    2 1
     2    1   34 1
     3    1   35 1
     4    1   36 1
     5    2    7 ar
     6    2    3 ar
     7    3    4 ar
     8    3   37 1
     9    4    5 ar
    10    4   38 1
    11    5    6 ar
    12    5   33 1
    13    6    7 ar
    14    6    8 1
    15    7   39 1
    16    8   13 1
    17    8    9 1
    18    9   10 1
    19    9   40 1
    20    9   41 1
    21   10   11 1
    22   10   42 1
    23   10   43 1
    24   11   12 1
    25   11   14 am
    26   12   13 1
    27   12   44 1
    28   12   45 1
    29   13   46 1
    30   13   47 1
    31   14   15 2
    32   14   16 1
    33   16   20 1
    34   16   17 2
    35   17   18 1
    36   17   32 1
    37   18   19 1
    38   19   24 ar
    39   19   20 ar
    40   20   21 ar
    41   21   22 ar
    42   21   26 1
    43   22   23 ar
    44   23   24 ar
    45   23   25 1
    46   25   48 1
    47   25   49 1
    48   25   50 1
    49   26   31 1
    50   26   27 1
    51   27   28 1
    52   27   51 1
    53   27   52 1
    54   28   29 1
    55   28   53 1
    56   28   54 1
    57   29   30 1
    58   30   31 1
    59   30   55 1
    60   30   56 1
    61   31   57 1
    62   31   58 1
    63   32   59 1
    64   32   60 1
    65   32   61 1
    66   33   62 1
    67   33   63 1
    68   33   64 1
@<TRIPOS>MOLECULE
ZINC35483175
   53    56     0     0     0
SMALL
USER_CHARGES

@<TRIPOS>ATOM
      1 C1         -1.0987    1.4058   -0.0428 C.3       1 <0>        -0.1204
      2 C2         -0.8496   -0.0805   -0.0398 C.ar      1 <0>        -0.0658
      3 C3         -0.6242   -0.7437   -1.2326 C.ar      1 <0>        -0.1294
      4 C4         -0.3956   -2.1047   -1.2358 C.ar      1 <0>        -0.0648
      5 C5         -0.3917   -2.8109   -0.0343 C.ar      1 <0>        -0.0693
      6 C6         -0.6189   -2.1374    1.1645 C.ar      1 <0>        -0.0863
      7 C7         -0.8417   -0.7754    1.1562 C.ar      1 <0>        -0.1274
      8 C8         -0.1471   -4.2739   -0.0314 C.ar      1 <0>         0.2510
      9 C9         -0.1471   -4.9884    1.1641 C.ar      1 <0>        -0.2878
     10 C10         0.0875   -6.3615    1.1113 C.ar      1 <0>         0.4457
     11 N1          0.3013   -6.9349   -0.0702 N.ar      1 <0>        -0.5827
     12 C11         0.2933   -6.2237   -1.1795 C.ar      1 <0>         0.3470
     13 N2          0.0708   -4.9261   -1.1740 N.ar      1 <0>        -0.5584
     14 N3          0.0984   -7.1181    2.2724 N.pl3     1 <0>        -0.5958
     15 C12         0.1234   -8.5862    2.2083 C.3       1 <0>         0.1107
     16 C13         1.3249   -9.0916    3.0166 C.3       1 <0>         0.0988
     17 N4          1.3121   -8.4402    4.3340 N.pl3     1 <0>        -0.9981
     18 C14         1.2870   -6.9722    4.3981 C.3       1 <0>         0.1047
     19 C15         0.0912   -6.4667    3.5898 C.3       1 <0>         0.1078
     20 S1          1.3251   -9.3443    5.7213 S.o2      1 <0>         2.7211
     21 O1          0.7591   -8.5321    6.7407 O.2       1 <0>        -0.9494
     22 O2          0.7960  -10.6184    5.3808 O.2       1 <0>        -0.9499
     23 C16         3.0122   -9.6007    6.1603 C.2       1 <0>        -0.8115
     24 C17         3.6457   -9.1185    7.3103 C.2       1 <0>         0.1483
     25 N5          4.8928   -9.5134    7.2860 N.2       1 <0>        -0.2652
     26 N6          5.0926  -10.2604    6.1179 N.pl3     1 <0>        -0.4281
     27 C18         3.9224  -10.3037    5.4473 C.2       1 <0>         0.2321
     28 C19         3.6745  -11.0061    4.1372 C.3       1 <0>        -0.1536
     29 C20         6.3487  -10.8887    5.7009 C.3       1 <0>         0.5071
     30 F1          7.0915  -11.2422    6.8325 F         1 <0>        -0.1645
     31 F2          6.0696  -12.0352    4.9494 F         1 <0>        -0.1741
     32 H1         -0.1492    1.9335    0.0482 H         1 <0>         0.0742
     33 H2         -1.5849    1.6909   -0.9757 H         1 <0>         0.0693
     34 H3         -1.7420    1.6681    0.7971 H         1 <0>         0.0689
     35 H4         -0.6275   -0.1955   -2.1631 H         1 <0>         0.1275
     36 H5         -0.2204   -2.6217   -2.1678 H         1 <0>         0.1375
     37 H6         -0.6174   -2.6797    2.0985 H         1 <0>         0.1260
     38 H7         -1.0138   -0.2517    2.0850 H         1 <0>         0.1277
     39 H8         -0.3239   -4.4919    2.1068 H         1 <0>         0.1434
     40 H9          0.4705   -6.7208   -2.1218 H         1 <0>         0.1970
     41 H10        -0.7973   -8.9866    2.6325 H         1 <0>         0.0750
     42 H11         0.2203   -8.9054    1.1706 H         1 <0>         0.1131
     43 H12         1.2531  -10.1719    3.1419 H         1 <0>         0.1066
     44 H13         2.2484   -8.8420    2.4941 H         1 <0>         0.0772
     45 H14         1.1902   -6.6529    5.4357 H         1 <0>         0.1109
     46 H15         2.2078   -6.5717    3.9739 H         1 <0>         0.0763
     47 H16         0.1668   -5.3866    3.4642 H         1 <0>         0.0990
     48 H17        -0.8319   -6.7128    4.1145 H         1 <0>         0.0823
     49 H18         3.1850   -8.5231    8.0847 H         1 <0>         0.2094
     50 H19         3.8770  -10.3212    3.3138 H         1 <0>         0.1040
     51 H20         4.3316  -11.8722    4.0593 H         1 <0>         0.1082
     52 H21         2.6356  -11.3328    4.0910 H         1 <0>         0.1124
     53 H22         6.9219  -10.1874    5.0945 H         1 <0>         0.1626
@<TRIPOS>BOND
     1    1    2 1
     2    1   32 1
     3    1   33 1
     4    1   34 1
     5    2    7 ar
     6    2    3 ar
     7    3    4 ar
     8    3   35 1
     9    4    5 ar
    10    4   36 1
    11    5    6 ar
    12    5    8 1
    13    6    7 ar
    14    6   37 1
    15    7   38 1
    16    8   13 ar
    17    8    9 ar
    18    9   10 ar
    19    9   39 1
    20   10   11 ar
    21   10   14 1
    22   11   12 ar
    23   12   13 ar
    24   12   40 1
    25   14   19 1
    26   14   15 1
    27   15   16 1
    28   15   41 1
    29   15   42 1
    30   16   17 1
    31   16   43 1
    32   16   44 1
    33   17   18 1
    34   17   20 1
    35   18   19 1
    36   18   45 1
    37   18   46 1
    38   19   47 1
    39   19   48 1
    40   20   21 2
    41   20   22 2
    42   20   23 1
    43   23   27 2
    44   23   24 1
    45   24   25 2
    46   24   49 1
    47   25   26 1
    48   26   27 1
    49   26   29 1
    50   27   28 1
    51   28   50 1
    52   28   51 1
    53   28   52 1
    54   29   30 1
    55   29   31 1
    56   29   53 1
@<TRIPOS>MOLECULE
ZINC12863707
   50    53     0     0     0
SMALL
USER_CHARGES
N-[(3R)-1,1-dioxothiolan-3-yl]-1-(4-fluorophenyl)-N',N',3-trimethyl-thieno[4,5-d]pyrazole-5-carbohydrazide
@<TRIPOS>ATOM
      1 C1         -2.0297   -5.1737    1.4607 C.3       1 <0>        -0.0821
      2 C2         -2.8330   -3.9133    1.2681 C.2       1 <0>         0.1496
      3 C3         -2.2925   -2.6229    0.9566 C.2       1 <0>        -0.2496
      4 C4         -1.0455   -2.0201    0.7284 C.2       1 <0>         0.0063
      5 C5         -0.9813   -0.6877    0.4484 C.2       1 <0>        -0.2452
      6 S1         -2.6958   -0.1945    0.4977 S.3       1 <0>         0.2442
      7 C6         -3.4074   -1.7751    0.8747 C.2       1 <0>         0.0200
      8 N1         -4.5187   -2.5002    1.1173 N.pl3     1 <0>        -0.2853
      9 N2         -4.1260   -3.8231    1.3575 N.2       1 <0>        -0.2677
     10 C7         -5.8338   -2.0157    1.1264 C.ar      1 <0>         0.1415
     11 C8         -6.1000   -0.7360    1.5949 C.ar      1 <0>        -0.0981
     12 C9         -7.3959   -0.2585    1.5983 C.ar      1 <0>        -0.1278
     13 C10        -8.4309   -1.0591    1.1450 C.ar      1 <0>         0.1024
     14 C11        -8.1682   -2.3378    0.6826 C.ar      1 <0>        -0.1312
     15 C12        -6.8730   -2.8169    0.6723 C.ar      1 <0>        -0.0778
     16 F1         -9.6985   -0.5920    1.1534 F         1 <0>        -0.1314
     17 C13         0.2013    0.1359    0.1800 C.2       1 <0>         0.6406
     18 O1          1.3091   -0.3680    0.1915 O.2       1 <0>        -0.5150
     19 N3          0.0618    1.4510   -0.0795 N.am      1 <0>        -0.4521
     20 C14         1.2437    2.2741   -0.3477 C.3       1 <0>         0.1238
     21 H1          0.9402    3.3044   -0.5334 H         1 <0>         0.1126
     22 C15         1.9920    1.7246   -1.5735 C.3       1 <0>        -0.1443
     23 C16         3.3925    2.3759   -1.6725 C.3       1 <0>        -0.5721
     24 S2          3.7802    2.7687    0.0819 S.o2      1 <0>         2.3748
     25 O2          3.9036    4.1772    0.2239 O.2       1 <0>        -0.9341
     26 O3          4.8362    1.9263    0.5228 O.2       1 <0>        -0.9267
     27 C17         2.2078    2.2221    0.8718 C.3       1 <0>        -0.5965
     28 N4         -1.1820    2.0154   -0.0980 N.3       1 <0>        -0.3063
     29 C18        -1.3009    3.0612    0.9268 C.3       1 <0>        -0.0050
     30 C19        -1.4998    2.5457   -1.4306 C.3       1 <0>        -0.0052
     31 H2         -1.7519   -5.2707    2.5102 H         1 <0>         0.0887
     32 H3         -2.6276   -6.0348    1.1620 H         1 <0>         0.0828
     33 H4         -1.1287   -5.1273    0.8491 H         1 <0>         0.0865
     34 H5         -0.1415   -2.6093    0.7741 H         1 <0>         0.1463
     35 H6         -5.2936   -0.1129    1.9527 H         1 <0>         0.1396
     36 H7         -7.6027    0.7384    1.9585 H         1 <0>         0.1496
     37 H8         -8.9768   -2.9607    0.3295 H         1 <0>         0.1490
     38 H9         -6.6685   -3.8139    0.3110 H         1 <0>         0.1461
     39 H10         2.1012    0.6444   -1.4765 H         1 <0>         0.1126
     40 H11         1.4234    1.9502   -2.4757 H         1 <0>         0.0967
     41 H12         3.3545    3.2849   -2.2728 H         1 <0>         0.1402
     42 H13         4.1181    1.6721   -2.0804 H         1 <0>         0.1470
     43 H14         1.8956    2.9174    1.6510 H         1 <0>         0.1425
     44 H15         2.2947    1.2083    1.2626 H         1 <0>         0.1603
     45 H16        -0.6295    3.8850    0.6848 H         1 <0>         0.0464
     46 H17        -2.3277    3.4258    0.9564 H         1 <0>         0.0957
     47 H18        -1.0338    2.6485    1.8997 H         1 <0>         0.0833
     48 H19        -1.3909    1.7542   -2.1720 H         1 <0>         0.0828
     49 H20        -2.5257    2.9137   -1.4400 H         1 <0>         0.0958
     50 H21        -0.8185    3.3626   -1.6685 H         1 <0>         0.0458
@<TRIPOS>BOND
     1    1    2 1
     2    1   31 1
     3    1   32 1
     4    1   33 1
     5    2    9 2
     6    2    3 1
     7    3    7 2
     8    3    4 1
     9    4    5 2
    10    4   34 1
    11    5    6 1
    12    5   17 1
    13    6    7 1
    14    7    8 1
    15    8    9 1
    16    8   10 1
    17   10   15 ar
    18   10   11 ar
    19   11   12 ar
    20   11   35 1
    21   12   13 ar
    22   12   36 1
    23   13   14 ar
    24   13   16 1
    25   14   15 ar
    26   14   37 1
    27   15   38 1
    28   17   18 2
    29   17   19 am
    30   19   20 1
    31   19   28 1
    32   20   21 1
    33   20   27 1
    34   20   22 1
    35   22   23 1
    36   22   39 1
    37   22   40 1
    38   23   24 1
    39   23   41 1
    40   23   42 1
    41   24   25 2
    42   24   26 2
    43   24   27 1
    44   27   43 1
    45   27   44 1
    46   28   29 1
    47   28   30 1
    48   29   45 1
    49   29   46 1
    50   29   47 1
    51   30   48 1
    52   30   49 1
    53   30   50 1
@<TRIPOS>MOLECULE
ZINC24966101
   58    62     0     0     0
SMALL
USER_CHARGES
2-benzo[e]benzofuran-1-yl-1-[4-(2-morpholinoacetyl)piperazin-1-yl]ethanone
@<TRIPOS>ATOM
      1 C1         -0.0126    1.0758    0.0080 C.ar      1 <0>        -0.1220
      2 C2          1.1891    1.7784    0.0003 C.ar      1 <0>        -0.1082
      3 C3          1.2025    3.1420    0.0074 C.ar      1 <0>        -0.1089
      4 C4         -0.0056    3.8471    0.0227 C.ar      1 <0>        -0.0009
      5 C5         -1.2302    3.1348    0.0306 C.ar      1 <0>        -0.0634
      6 C6         -1.2068    1.7311    0.0172 C.ar      1 <0>        -0.0951
      7 C7         -2.4453    3.8460    0.0449 C.ar      1 <0>        -0.0837
      8 C8         -2.4648    5.2017    0.0523 C.ar      1 <0>        -0.0880
      9 C9         -1.2846    5.9537    0.0453 C.ar      1 <0>         0.0427
     10 C10        -0.0469    5.3036    0.0304 C.ar      1 <0>        -0.1082
     11 C11         0.9602    6.3626    0.0262 C.2       1 <0>        -0.1555
     12 C12         0.2823    7.5224    0.0384 C.2       1 <0>         0.0159
     13 O1         -1.0388    7.2796    0.0497 O.3       1 <0>        -0.1761
     14 C13         2.4571    6.1886    0.0113 C.3       1 <0>        -0.0727
     15 C14         2.9284    6.0147   -1.4095 C.2       1 <0>         0.5155
     16 O2          2.1277    6.0305   -2.3203 O.2       1 <0>        -0.5178
     17 N1          4.2398    5.8417   -1.6681 N.am      1 <0>        -0.6171
     18 C15         5.2220    5.8266   -0.5750 C.3       1 <0>         0.0874
     19 C16         6.0224    4.5159   -0.6597 C.3       1 <0>         0.0896
     20 N2          6.4964    4.3450   -2.0403 N.am      1 <0>        -0.6153
     21 C17         5.5148    4.3658   -3.1339 C.3       1 <0>         0.0985
     22 C18         4.7137    5.6709   -3.0487 C.3       1 <0>         0.0975
     23 C19         7.8078    4.1720   -2.2989 C.2       1 <0>         0.5188
     24 O3          8.1871    4.0317   -3.4423 O.2       1 <0>        -0.5148
     25 C20         8.8028    4.1530   -1.1673 C.3       1 <0>         0.0350
     26 N3         10.1542    3.9516   -1.7068 N.3       1 <0>        -0.5201
     27 C21        10.2890    2.6154   -2.3048 C.3       1 <0>         0.0115
     28 C22        11.6895    2.4702   -2.9061 C.3       1 <0>         0.0635
     29 O4         12.6665    2.7095   -1.8894 O.3       1 <0>        -0.3858
     30 C23        12.5647    4.0020   -1.2859 C.3       1 <0>         0.0621
     31 C24        11.1731    4.1627   -0.6682 C.3       1 <0>         0.0170
     32 H1          0.0021   -0.0041    0.0020 H         1 <0>         0.1253
     33 H2          2.1231    1.2363   -0.0119 H         1 <0>         0.1229
     34 H3          2.1417    3.6752    0.0017 H         1 <0>         0.1184
     35 H4         -2.1316    1.1732    0.0186 H         1 <0>         0.1307
     36 H5         -3.3783    3.3020    0.0506 H         1 <0>         0.1403
     37 H6         -3.4154    5.7143    0.0634 H         1 <0>         0.1335
     38 H7          0.7327    8.5040    0.0397 H         1 <0>         0.2087
     39 H8          2.9339    7.0777    0.4496 H         1 <0>         0.1089
     40 H9          2.7288    5.2995    0.5992 H         1 <0>         0.1065
     41 H10         5.8984    6.6879   -0.6779 H         1 <0>         0.0806
     42 H11         4.6975    5.8856    0.3901 H         1 <0>         0.1009
     43 H12         6.8799    4.5649    0.0275 H         1 <0>         0.0990
     44 H13         5.3751    3.6721   -0.3786 H         1 <0>         0.0791
     45 H14         6.0399    4.3114   -4.0990 H         1 <0>         0.1081
     46 H15         4.8380    3.5042   -3.0356 H         1 <0>         0.0738
     47 H16         3.8509    5.6255   -3.7295 H         1 <0>         0.1074
     48 H17         5.3540    6.5217   -3.3245 H         1 <0>         0.0747
     49 H18         8.7625    5.1106   -0.6275 H         1 <0>         0.1078
     50 H19         8.5575    3.3324   -0.4771 H         1 <0>         0.0667
     51 H20        10.1397    1.8498   -1.5292 H         1 <0>         0.0386
     52 H21         9.5339    2.4893   -3.0946 H         1 <0>         0.1050
     53 H22        11.8138    1.4524   -3.3045 H         1 <0>         0.1003
     54 H23        11.8170    3.2002   -3.7190 H         1 <0>         0.0634
     55 H24        13.3298    4.1018   -0.5019 H         1 <0>         0.1015
     56 H25        12.7202    4.7771   -2.0508 H         1 <0>         0.0621
     57 H26        11.0689    5.1760   -0.2530 H         1 <0>         0.0889
     58 H27        11.0381    3.4221    0.1338 H         1 <0>         0.0456
@<TRIPOS>BOND
     1    1    6 ar
     2    1    2 ar
     3    1   32 1
     4    2    3 ar
     5    2   33 1
     6    3    4 ar
     7    3   34 1
     8    4   10 ar
     9    4    5 ar
    10    5    6 ar
    11    5    7 ar
    12    6   35 1
    13    7    8 ar
    14    7   36 1
    15    8    9 ar
    16    8   37 1
    17    9   13 1
    18    9   10 ar
    19   10   11 1
    20   11   12 2
    21   11   14 1
    22   12   13 1
    23   12   38 1
    24   14   15 1
    25   14   39 1
    26   14   40 1
    27   15   16 2
    28   15   17 am
    29   17   22 1
    30   17   18 1
    31   18   19 1
    32   18   41 1
    33   18   42 1
    34   19   20 1
    35   19   43 1
    36   19   44 1
    37   20   21 1
    38   20   23 am
    39   21   22 1
    40   21   45 1
    41   21   46 1
    42   22   47 1
    43   22   48 1
    44   23   24 2
    45   23   25 1
    46   25   26 1
    47   25   49 1
    48   25   50 1
    49   26   31 1
    50   26   27 1
    51   27   28 1
    52   27   51 1
    53   27   52 1
    54   28   29 1
    55   28   53 1
    56   28   54 1
    57   29   30 1
    58   30   31 1
    59   30   55 1
    60   30   56 1
    61   31   57 1
    62   31   58 1
@<TRIPOS>MOLECULE
ZINC36006046
   53    58     0     0     0
SMALL
USER_CHARGES

@<TRIPOS>ATOM
      1 C1          0.0126    1.3459    0.1051 C.ar      1 <0>        -0.0814
      2 C2          1.2028    2.0463    0.1060 C.ar      1 <0>        -0.1353
      3 C3          2.4080    1.3655    0.0643 C.ar      1 <0>         0.1018
      4 C4          2.4224   -0.0187    0.0216 C.ar      1 <0>        -0.1318
      5 C5          1.2343   -0.7228    0.0210 C.ar      1 <0>        -0.0833
      6 C6          0.0248   -0.0420    0.0628 C.ar      1 <0>         0.1437
      7 N1         -1.1818   -0.7546    0.0622 N.pl3     1 <0>        -0.3321
      8 C7         -1.4200   -1.9253   -0.5996 C.ar      1 <0>         0.3561
      9 C8         -2.7548   -2.2793   -0.3201 C.ar      1 <0>        -0.2831
     10 C9         -3.2806   -1.2769    0.5237 C.2       1 <0>         0.1213
     11 N2         -2.3498   -0.3924    0.7452 N.2       1 <0>        -0.2359
     12 C10        -3.2634   -3.4634   -0.8874 C.ar      1 <0>         0.5243
     13 N3         -2.4610   -4.1895   -1.6584 N.ar      1 <0>        -0.5467
     14 C11        -1.2152   -3.8168   -1.8921 C.ar      1 <0>         0.4163
     15 N4         -0.6958   -2.7201   -1.3850 N.ar      1 <0>        -0.5331
     16 C12        -0.3546   -4.6832   -2.7752 C.3       1 <0>        -0.1055
     17 C13         1.1337   -4.3407   -2.8665 C.3       1 <0>        -0.1507
     18 C14         0.2084   -4.0528   -4.0505 C.3       1 <0>        -0.1508
     19 N5         -4.5643   -3.8606   -0.6480 N.pl3     1 <0>        -0.6622
     20 C15        -5.6636   -3.3684   -1.4900 C.3       1 <0>         0.1360
     21 C16        -6.4223   -4.5736   -2.0594 C.3       1 <0>         0.0962
     22 N6         -6.7319   -5.4965   -0.9583 N.am      1 <0>        -0.6066
     23 C17        -5.6326   -5.9887   -0.1163 C.3       1 <0>         0.0913
     24 C18        -4.8732   -4.7879    0.4496 C.3       1 <0>         0.1337
     25 C19        -8.0014   -5.8841   -0.7247 C.2       1 <0>         0.5465
     26 O1         -8.9005   -5.4709   -1.4260 O.2       1 <0>        -0.5384
     27 C20        -8.3038   -6.8309    0.4081 C.3       1 <0>        -0.1992
     28 C21        -8.7698   -8.2420    0.0440 C.3       1 <0>        -0.1508
     29 C22        -9.7644   -7.2332    0.6218 C.3       1 <0>        -0.1465
     30 F1          3.5713    2.0525    0.0649 F         1 <0>        -0.1327
     31 H1         -0.9271    1.8771    0.1418 H         1 <0>         0.1439
     32 H2          1.1937    3.1258    0.1389 H         1 <0>         0.1474
     33 H3          3.3633   -0.5478   -0.0116 H         1 <0>         0.1477
     34 H4          1.2460   -1.8022   -0.0123 H         1 <0>         0.1442
     35 H5         -4.2842   -1.2498    0.9217 H         1 <0>         0.2045
     36 H6         -0.6323   -5.7365   -2.8146 H         1 <0>         0.1347
     37 H7          1.4905   -3.4886   -2.2878 H         1 <0>         0.1091
     38 H8          1.8356   -5.1687   -2.9659 H         1 <0>         0.1037
     39 H9          0.3015   -4.6915   -4.9289 H         1 <0>         0.1063
     40 H10        -0.0435   -3.0114   -4.2508 H         1 <0>         0.0962
     41 H11        -6.3404   -2.7605   -0.8895 H         1 <0>         0.0704
     42 H12        -5.2593   -2.7713   -2.3073 H         1 <0>         0.0825
     43 H13        -7.3481   -4.2362   -2.5253 H         1 <0>         0.1021
     44 H14        -5.8017   -5.0807   -2.7982 H         1 <0>         0.0746
     45 H15        -6.0369   -6.5858    0.7010 H         1 <0>         0.0972
     46 H16        -4.9558   -6.5966   -0.7168 H         1 <0>         0.0781
     47 H17        -3.9470   -5.1279    0.9128 H         1 <0>         0.0834
     48 H18        -5.4924   -4.2834    1.1913 H         1 <0>         0.0700
     49 H19        -7.6776   -6.7201    1.2933 H         1 <0>         0.1253
     50 H20        -8.8576   -8.4856   -1.0148 H         1 <0>         0.0994
     51 H21        -8.4500   -9.0599    0.6898 H         1 <0>         0.1058
     52 H22       -10.0991   -7.3874    1.6476 H         1 <0>         0.1045
     53 H23       -10.5066   -6.8130   -0.0569 H         1 <0>         0.1082
@<TRIPOS>BOND
     1    1    6 ar
     2    1    2 ar
     3    1   31 1
     4    2    3 ar
     5    2   32 1
     6    3    4 ar
     7    3   30 1
     8    4    5 ar
     9    4   33 1
    10    5    6 ar
    11    5   34 1
    12    6    7 1
    13    7   11 1
    14    7    8 1
    15    8   15 ar
    16    8    9 ar
    17    9   10 1
    18    9   12 ar
    19   10   11 2
    20   10   35 1
    21   12   13 ar
    22   12   19 1
    23   13   14 ar
    24   14   15 ar
    25   14   16 1
    26   16   18 1
    27   16   17 1
    28   16   36 1
    29   17   18 1
    30   17   37 1
    31   17   38 1
    32   18   39 1
    33   18   40 1
    34   19   24 1
    35   19   20 1
    36   20   21 1
    37   20   41 1
    38   20   42 1
    39   21   22 1
    40   21   43 1
    41   21   44 1
    42   22   23 1
    43   22   25 am
    44   23   24 1
    45   23   45 1
    46   23   46 1
    47   24   47 1
    48   24   48 1
    49   25   26 2
    50   25   27 1
    51   27   29 1
    52   27   28 1
    53   27   49 1
    54   28   29 1
    55   28   50 1
    56   28   51 1
    57   29   52 1
    58   29   53 1
@<TRIPOS>MOLECULE
ZINC40901838
   58    62     0     0     0
SMALL
USER_CHARGES

@<TRIPOS>ATOM
      1 C1          1.5156    1.7705   -0.6535 C.3       1 <0>         0.0242
      2 N1          1.1218    0.3743   -0.4220 N.3       1 <0>        -0.5433
      3 C2          1.3716   -0.4476   -1.6137 C.3       1 <0>         0.0403
      4 C3          0.7844   -1.8464   -1.3975 C.3       1 <0>         0.1155
      5 N2          1.3240   -2.3908   -0.1422 N.am      1 <0>        -0.6160
      6 C4          1.2334   -1.5638    1.0707 C.3       1 <0>         0.1091
      7 C5          1.8030   -0.1762    0.7574 C.3       1 <0>         0.0380
      8 C6          1.8862   -3.6152   -0.1043 C.2       1 <0>         0.5204
      9 O1          1.8716   -4.3199   -1.0912 O.2       1 <0>        -0.5366
     10 C7          2.5328   -4.1084    1.1644 C.3       1 <0>        -0.1017
     11 C8          1.4680   -4.7299    2.0711 C.3       1 <0>        -0.1252
     12 C9          2.1230   -5.1989    3.3741 C.3       1 <0>         0.1475
     13 N3          3.2366   -6.0994    3.0461 N.pl3     1 <0>        -0.6761
     14 C10         4.2697   -5.6339    2.1108 C.3       1 <0>         0.1454
     15 C11         3.5906   -5.1600    0.8220 C.3       1 <0>        -0.1170
     16 C12         3.3120   -7.3730    3.6126 C.ar      1 <0>         0.1682
     17 C13         2.7213   -8.4545    2.9701 C.ar      1 <0>        -0.1000
     18 C14         2.7943   -9.7132    3.5275 C.ar      1 <0>        -0.0785
     19 C15         3.4617   -9.9022    4.7369 C.ar      1 <0>        -0.0146
     20 C16         4.0546   -8.8169    5.3811 C.ar      1 <0>        -0.0966
     21 C17         3.9837   -7.5592    4.8178 C.ar      1 <0>         0.0884
     22 F1          4.5621   -6.5076    5.4382 F         1 <0>        -0.1269
     23 C18         3.5404  -11.2558    5.3378 C.2       1 <0>         0.2989
     24 N4          4.1482  -11.5656    6.4975 N.2       1 <0>        -0.5349
     25 C19         4.0322  -12.8409    6.7349 C.2       1 <0>         0.3290
     26 O2          3.3425  -13.3990    5.7316 O.3       1 <0>        -0.1005
     27 N5          3.0247  -12.3488    4.8306 N.2       1 <0>        -0.3303
     28 C20         4.5818  -13.5664    7.9360 C.3       1 <0>        -0.0979
     29 C21         4.5136  -15.0949    7.9303 C.3       1 <0>        -0.1546
     30 C22         3.5838  -14.2910    8.8414 C.3       1 <0>        -0.1469
     31 H1          2.5923    1.8222   -0.8159 H         1 <0>         0.0267
     32 H2          0.9969    2.1534   -1.5324 H         1 <0>         0.0714
     33 H3          1.2500    2.3719    0.2159 H         1 <0>         0.0718
     34 H4          0.8994    0.0151   -2.4802 H         1 <0>         0.0893
     35 H5          2.4455   -0.5261   -1.7828 H         1 <0>         0.0388
     36 H6         -0.3017   -1.7814   -1.3315 H         1 <0>         0.0757
     37 H7          1.0654   -2.4939   -2.2281 H         1 <0>         0.0957
     38 H8          0.1905   -1.4717    1.3740 H         1 <0>         0.0802
     39 H9          1.8114   -2.0245    1.8719 H         1 <0>         0.0924
     40 H10         2.8709   -0.2584    0.5552 H         1 <0>         0.0397
     41 H11         1.6436    0.4835    1.6103 H         1 <0>         0.0899
     42 H12         3.0054   -3.2724    1.6799 H         1 <0>         0.0923
     43 H13         0.7026   -3.9870    2.2955 H         1 <0>         0.0753
     44 H14         1.0121   -5.5815    1.5660 H         1 <0>         0.0749
     45 H15         2.5001   -4.3369    3.9244 H         1 <0>         0.0585
     46 H16         1.3899   -5.7303    3.9809 H         1 <0>         0.0758
     47 H17         4.8218   -4.8073    2.5581 H         1 <0>         0.0569
     48 H18         4.9531   -6.4523    1.8842 H         1 <0>         0.0753
     49 H19         3.1148   -6.0076    0.3287 H         1 <0>         0.0789
     50 H20         4.3360   -4.7232    0.1574 H         1 <0>         0.0731
     51 H21         2.2042   -8.3087    2.0332 H         1 <0>         0.1435
     52 H22         2.3343  -10.5528    3.0276 H         1 <0>         0.1403
     53 H23         4.5720   -8.9612    6.3181 H         1 <0>         0.1518
     54 H24         5.4469  -13.1027    8.4101 H         1 <0>         0.1550
     55 H25         4.0711  -15.5757    7.0578 H         1 <0>         0.1091
     56 H26         5.3339  -15.6371    8.4006 H         1 <0>         0.1174
     57 H27         3.7925  -14.3043    9.9112 H         1 <0>         0.1185
     58 H28         2.5297  -14.2429    8.5684 H         1 <0>         0.1044
@<TRIPOS>BOND
     1    1    2 1
     2    1   31 1
     3    1   32 1
     4    1   33 1
     5    2    7 1
     6    2    3 1
     7    3    4 1
     8    3   34 1
     9    3   35 1
    10    4    5 1
    11    4   36 1
    12    4   37 1
    13    5    6 1
    14    5    8 am
    15    6    7 1
    16    6   38 1
    17    6   39 1
    18    7   40 1
    19    7   41 1
    20    8    9 2
    21    8   10 1
    22   10   15 1
    23   10   11 1
    24   10   42 1
    25   11   12 1
    26   11   43 1
    27   11   44 1
    28   12   13 1
    29   12   45 1
    30   12   46 1
    31   13   14 1
    32   13   16 1
    33   14   15 1
    34   14   47 1
    35   14   48 1
    36   15   49 1
    37   15   50 1
    38   16   21 ar
    39   16   17 ar
    40   17   18 ar
    41   17   51 1
    42   18   19 ar
    43   18   52 1
    44   19   20 ar
    45   19   23 1
    46   20   21 ar
    47   20   53 1
    48   21   22 1
    49   23   27 2
    50   23   24 1
    51   24   25 2
    52   25   26 1
    53   25   28 1
    54   26   27 1
    55   28   30 1
    56   28   29 1
    57   28   54 1
    58   29   30 1
    59   29   55 1
    60   29   56 1
    61   30   57 1
    62   30   58 1
@<TRIPOS>MOLECULE
ZINC65365638
   46    49     0     0     0
SMALL
USER_CHARGES

@<TRIPOS>ATOM
      1 C1          0.1833    1.3050    1.3770 C.2       1 <0>        -0.2598
      2 C2          1.5049    1.7614    1.3096 C.2       1 <0>         0.0724
      3 N1          2.2871    0.7320    1.1124 N.2       1 <0>        -0.2841
      4 N2          1.4904   -0.4185    1.0470 N.pl3     1 <0>        -0.3322
      5 C3          0.1966   -0.0375    1.2133 C.2       1 <0>         0.0828
      6 C4          1.9445   -1.7234    0.8462 C.ar      1 <0>         0.4500
      7 C5          3.3009   -1.9817    0.6945 C.ar      1 <0>        -0.2908
      8 C6          3.7035   -3.3008    0.4964 C.ar      1 <0>         0.4611
      9 N3          2.7801   -4.2588    0.4600 N.ar      1 <0>        -0.5854
     10 C7          1.5029   -3.9718    0.6082 C.ar      1 <0>         0.3765
     11 N4          1.0846   -2.7377    0.8028 N.ar      1 <0>        -0.5849
     12 N5          5.0452   -3.6107    0.3393 N.pl3     1 <0>        -0.5934
     13 C8          5.4943   -5.0101    0.3361 C.3       1 <0>         0.1076
     14 C9          6.2768   -5.2707   -0.9569 C.3       1 <0>         0.0816
     15 N6          7.2759   -4.2059   -1.1239 N.am      1 <0>        -0.6077
     16 C10         6.8269   -2.8065   -1.1207 C.3       1 <0>         0.0980
     17 C11         6.0435   -2.5461    0.1667 C.3       1 <0>         0.1044
     18 C12         8.5806   -4.5073   -1.2768 C.2       1 <0>         0.5619
     19 O1          9.4100   -3.6192   -1.3077 O.2       1 <0>        -0.5205
     20 C13         9.0031   -5.9181   -1.4068 C.ar      1 <0>        -0.0986
     21 C14         8.2703   -6.7986   -2.2042 C.ar      1 <0>        -0.0932
     22 C15         8.6702   -8.1137   -2.3217 C.ar      1 <0>        -0.0734
     23 C16         9.7947   -8.5605   -1.6508 C.ar      1 <0>        -0.1607
     24 C17        10.5254   -7.6930   -0.8584 C.ar      1 <0>        -0.0712
     25 C18        10.1398   -6.3739   -0.7373 C.ar      1 <0>        -0.0663
     26 C19        10.2254   -9.9986   -1.7834 C.3       1 <0>         0.5071
     27 F1         11.1056  -10.1241   -2.8635 F         1 <0>        -0.1728
     28 F2         10.8683  -10.4030   -0.6085 F         1 <0>        -0.1739
     29 F3          9.1021  -10.8036   -2.0011 F         1 <0>        -0.1741
     30 H1         -0.6925    1.9166    1.5365 H         1 <0>         0.1604
     31 H2          1.8242    2.7889    1.4038 H         1 <0>         0.1967
     32 H3         -0.6649   -0.6888    1.2147 H         1 <0>         0.1860
     33 H4          4.0247   -1.1808    0.7289 H         1 <0>         0.1547
     34 H5          0.7782   -4.7717    0.5733 H         1 <0>         0.2079
     35 H6          6.1391   -5.1893    1.1964 H         1 <0>         0.0738
     36 H7          4.6293   -5.6720    0.3799 H         1 <0>         0.1155
     37 H8          6.7786   -6.2363   -0.8926 H         1 <0>         0.1068
     38 H9          5.5928   -5.2669   -1.8056 H         1 <0>         0.0818
     39 H10         7.6918   -2.1447   -1.1645 H         1 <0>         0.1123
     40 H11         6.1820   -2.6273   -1.9810 H         1 <0>         0.0780
     41 H12         5.5413   -1.5812    0.0986 H         1 <0>         0.1027
     42 H13         6.7284   -2.5459    1.0147 H         1 <0>         0.0815
     43 H14         7.3919   -6.4512   -2.7279 H         1 <0>         0.1436
     44 H15         8.1041   -8.7960   -2.9384 H         1 <0>         0.1458
     45 H16        11.4020   -8.0482   -0.3370 H         1 <0>         0.1462
     46 H17        10.7138   -5.6966   -0.1223 H         1 <0>         0.1457
@<TRIPOS>BOND
     1    1    5 2
     2    1    2 1
     3    1   30 1
     4    2    3 2
     5    2   31 1
     6    3    4 1
     7    4    5 1
     8    4    6 1
     9    5   32 1
    10    6   11 ar
    11    6    7 ar
    12    7    8 ar
    13    7   33 1
    14    8    9 ar
    15    8   12 1
    16    9   10 ar
    17   10   11 ar
    18   10   34 1
    19   12   17 1
    20   12   13 1
    21   13   14 1
    22   13   35 1
    23   13   36 1
    24   14   15 1
    25   14   37 1
    26   14   38 1
    27   15   16 1
    28   15   18 am
    29   16   17 1
    30   16   39 1
    31   16   40 1
    32   17   41 1
    33   17   42 1
    34   18   19 2
    35   18   20 1
    36   20   25 ar
    37   20   21 ar
    38   21   22 ar
    39   21   43 1
    40   22   23 ar
    41   22   44 1
    42   23   24 ar
    43   23   26 1
    44   24   25 ar
    45   24   45 1
    46   25   46 1
    47   26   27 1
    48   26   28 1
    49   26   29 1
@<TRIPOS>MOLECULE
ZINC13090820
   44    46     0     0     0
SMALL
USER_CHARGES
2-[4-[4-chloro-3-(trifluoromethyl)phenyl]sulfonylpiperazin-1-yl]pyridine-3-carboxylic acid
@<TRIPOS>ATOM
      1 C1          3.6513   -1.2845   -0.0197 C.ar      1 <0>        -0.1388
      2 C2          3.0900   -0.6232    1.0581 C.ar      1 <0>         0.0471
      3 C3          3.0551    0.7762    1.0350 C.ar      1 <0>        -0.0763
      4 C4          3.5850    1.4480   -0.0808 C.ar      1 <0>         0.3521
      5 C5          4.1574   -0.5535   -1.0796 C.ar      1 <0>         0.1289
      6 N1          3.5567    2.8292   -0.1292 N.pl3     1 <0>        -0.4606
      7 C6          2.6198    3.3008   -1.1576 C.3       1 <0>         0.0433
      8 C7          2.4813    4.8237   -1.0578 C.3       1 <0>         0.1253
      9 N2          3.8243    5.4200   -1.1196 N.pl3     1 <0>        -0.9978
     10 C8          4.8582    4.9020   -0.2108 C.3       1 <0>         0.1276
     11 C9          4.9031    3.3761   -0.3439 C.3       1 <0>         0.0361
     12 S1          4.1633    6.6426   -2.1839 S.o2      1 <0>         2.6893
     13 O1          2.9264    7.2748   -2.4835 O.2       1 <0>        -0.9351
     14 O2          5.2714    7.3524   -1.6475 O.2       1 <0>        -0.9360
     15 C10         4.7208    5.8932   -3.6779 C.ar      1 <0>        -0.6852
     16 C11         6.0675    5.6417   -3.8643 C.ar      1 <0>         0.0227
     17 C12         6.5047    5.0488   -5.0335 C.ar      1 <0>        -0.1298
     18 C13         5.5956    4.7171   -6.0226 C.ar      1 <0>         0.0550
     19 C14         4.2490    4.9741   -5.8379 C.ar      1 <0>        -0.1994
     20 C15         3.8122    5.5621   -4.6656 C.ar      1 <0>         0.0375
     21 C16         3.2582    4.6127   -6.9144 C.3       1 <0>         0.5105
     22 F1          1.9696    4.9660   -6.4998 F         1 <0>        -0.1683
     23 F2          3.5751    5.3014   -8.0901 F         1 <0>        -0.1640
     24 F3          3.3101    3.2350   -7.1525 F         1 <0>        -0.1686
     25 Cl1         6.1447    3.9782   -7.4943 Cl        1 <0>        -0.0208
     26 C17         2.4685    1.5305    2.1558 C.2       1 <0>         0.4860
     27 O3          2.5329    2.7439    2.1713 O.co2     1 <0>        -0.5606
     28 H1          3.6938   -2.3636   -0.0336 H         1 <0>         0.1842
     29 H2          2.6884   -1.1729    1.8965 H         1 <0>         0.1846
     30 H3          4.5948   -1.0720   -1.9200 H         1 <0>         0.1873
     31 H4          2.9981    3.0339   -2.1443 H         1 <0>         0.0434
     32 H5          1.6460    2.8361   -1.0030 H         1 <0>         0.1075
     33 H6          2.0068    5.0871   -0.1125 H         1 <0>         0.1092
     34 H7          1.8776    5.1944   -1.8862 H         1 <0>         0.1056
     35 H8          4.6123    5.1729    0.8160 H         1 <0>         0.1076
     36 H9          5.8271    5.3218   -0.4812 H         1 <0>         0.1051
     37 H10         5.5853    2.9659    0.4008 H         1 <0>         0.1061
     38 H11         5.2497    3.1081   -1.3420 H         1 <0>         0.0402
     39 H12         6.7774    5.9047   -3.0941 H         1 <0>         0.1624
     40 H13         7.5562    4.8487   -5.1773 H         1 <0>         0.1599
     41 H14         2.7609    5.7631   -4.5214 H         1 <0>         0.1658
     42 N3          4.1457    0.8043   -1.1457 N.ar      1 <0>        -0.5234
     43 H15         4.5348    1.3142   -1.9475 H         1 <0>         0.4540
     44 O4          1.8604    0.8750    3.1642 O.co2     1 <0>        -0.7194
@<TRIPOS>BOND
     1    1    5 ar
     2    1    2 ar
     3    1   28 1
     4    2    3 ar
     5    2   29 1
     6    3    4 ar
     7    3   26 1
     8    4    6 1
     9    4   42 ar
    10    5   30 1
    11    5   42 ar
    12    6   11 1
    13    6    7 1
    14    7    8 1
    15    7   31 1
    16    7   32 1
    17    8    9 1
    18    8   33 1
    19    8   34 1
    20    9   10 1
    21    9   12 1
    22   10   11 1
    23   10   35 1
    24   10   36 1
    25   11   37 1
    26   11   38 1
    27   12   13 2
    28   12   14 2
    29   12   15 1
    30   15   20 ar
    31   15   16 ar
    32   16   17 ar
    33   16   39 1
    34   17   18 ar
    35   17   40 1
    36   18   19 ar
    37   18   25 1
    38   19   20 ar
    39   19   21 1
    40   20   41 1
    41   21   22 1
    42   21   23 1
    43   21   24 1
    44   26   27 2
    45   26   44 1
    46   42   43 1
@<TRIPOS>MOLECULE
ZINC17721170
   57    60     0     0     0
SMALL
USER_CHARGES
2-(3-cyclopentyl-5,6-dimethyl-4-oxo-thieno[2,3-d]pyrimidin-2-yl)sulfanyl-N-(1,3,5-trimethylpyrazol-4-yl)acetamide
@<TRIPOS>ATOM
      1 C1          2.0671   -0.5722   -6.8835 C.3       1 <0>        -0.1049
      2 C2          1.3945    0.5158   -6.0865 C.2       1 <0>        -0.0542
      3 C3          0.7183    1.4928   -6.7084 C.2       1 <0>        -0.1678
      4 S1          0.1255    2.5053   -5.3662 S.3       1 <0>         0.1297
      5 C4          0.8035    1.5867   -4.0078 C.2       1 <0>         0.1186
      6 C5          1.4717    0.5185   -4.6358 C.2       1 <0>        -0.2521
      7 C6          2.1272   -0.4052   -3.7620 C.2       1 <0>         0.5605
      8 O1          2.7312   -1.3620   -4.2158 O.2       1 <0>        -0.5045
      9 N1          2.0681   -0.2046   -2.4327 N.am      1 <0>        -0.5051
     10 C7          1.3967    0.8608   -1.9066 C.2       1 <0>         0.3578
     11 N2          0.7799    1.7242   -2.6878 N.2       1 <0>        -0.5047
     12 S2          1.3479    1.0806   -0.1590 S.3       1 <0>         0.1062
     13 C8          0.3591    2.5934   -0.0600 C.3       1 <0>        -0.1561
     14 C9          0.1816    2.9838    1.3847 C.2       1 <0>         0.5317
     15 O2          0.6751    2.3059    2.2612 O.2       1 <0>        -0.5057
     16 N3         -0.5255    4.0862    1.7028 N.am      1 <0>        -0.6368
     17 C10        -0.6178    4.5001    3.0451 C.2       1 <0>        -0.0167
     18 C11        -1.0090    3.7024    4.1304 C.2       1 <0>         0.0986
     19 N4         -0.9684    4.4337    5.2144 N.2       1 <0>        -0.2866
     20 N5         -0.5603    5.7260    4.8601 N.pl3     1 <0>        -0.3700
     21 C12        -0.3498    5.7439    3.5185 C.2       1 <0>         0.0812
     22 C13         0.1000    6.9290    2.7035 C.3       1 <0>        -0.0929
     23 C14        -0.3910    6.8578    5.7746 C.3       1 <0>         0.1033
     24 C15        -1.4040    2.2498    4.0604 C.3       1 <0>        -0.0641
     25 C16         2.7376   -1.1475   -1.5332 C.3       1 <0>         0.1173
     26 C17         4.2504   -1.1805   -1.8332 C.3       1 <0>        -0.1304
     27 C18         4.6430   -2.6670   -1.6391 C.3       1 <0>        -0.1171
     28 C19         3.4192   -3.4224   -2.2143 C.3       1 <0>        -0.1165
     29 C20         2.2092   -2.5723   -1.7750 C.3       1 <0>        -0.1237
     30 C21         0.5094    1.6880   -8.1880 C.3       1 <0>        -0.0668
     31 H1          1.3717   -1.3988   -7.0289 H         1 <0>         0.0713
     32 H2          2.3704   -0.1776   -7.8532 H         1 <0>         0.0664
     33 H3          2.9457   -0.9270   -6.3447 H         1 <0>         0.0831
     34 H4          0.8685    3.3960   -0.5933 H         1 <0>         0.1339
     35 H5         -0.6174    2.4195   -0.5120 H         1 <0>         0.1340
     36 H6         -0.9707    4.5945    1.0069 H         1 <0>         0.4100
     37 H7         -0.7720    7.4833    2.3564 H         1 <0>         0.0838
     38 H8          0.7219    7.5786    3.3194 H         1 <0>         0.0758
     39 H9          0.6754    6.5823    1.8451 H         1 <0>         0.0845
     40 H10        -1.3296    7.4067    5.8512 H         1 <0>         0.0775
     41 H11        -0.1042    6.4894    6.7595 H         1 <0>         0.0927
     42 H12         0.3868    7.5196    5.3936 H         1 <0>         0.0879
     43 H13        -0.5548    1.6282    4.3440 H         1 <0>         0.0851
     44 H14        -2.2333    2.0655    4.7434 H         1 <0>         0.0701
     45 H15        -1.7098    2.0050    3.0432 H         1 <0>         0.0684
     46 H16         2.5688   -0.8576   -0.4961 H         1 <0>         0.1087
     47 H17         4.4429   -0.8661   -2.8590 H         1 <0>         0.0837
     48 H18         4.7925   -0.5472   -1.1310 H         1 <0>         0.0750
     49 H19         4.7762   -2.8958   -0.5818 H         1 <0>         0.0704
     50 H20         5.5450   -2.9081   -2.2016 H         1 <0>         0.0731
     51 H21         3.3555   -4.4245   -1.7901 H         1 <0>         0.0668
     52 H22         3.4757   -3.4724   -3.3016 H         1 <0>         0.0800
     53 H23         1.7848   -2.9742   -0.8549 H         1 <0>         0.0777
     54 H24         1.4540   -2.5621   -2.5609 H         1 <0>         0.0723
     55 H25        -0.3988    1.1710   -8.4981 H         1 <0>         0.0803
     56 H26         0.4135    2.7520   -8.4042 H         1 <0>         0.0751
     57 H27         1.3622    1.2821   -8.7320 H         1 <0>         0.0843
@<TRIPOS>BOND
     1    1    2 1
     2    1   31 1
     3    1   32 1
     4    1   33 1
     5    2    6 1
     6    2    3 2
     7    3    4 1
     8    3   30 1
     9    4    5 1
    10    5   11 1
    11    5    6 2
    12    6    7 1
    13    7    8 2
    14    7    9 am
    15    9   10 1
    16    9   25 1
    17   10   11 2
    18   10   12 1
    19   12   13 1
    20   13   14 1
    21   13   34 1
    22   13   35 1
    23   14   15 2
    24   14   16 am
    25   16   17 1
    26   16   36 1
    27   17   21 2
    28   17   18 1
    29   18   19 2
    30   18   24 1
    31   19   20 1
    32   20   21 1
    33   20   23 1
    34   21   22 1
    35   22   37 1
    36   22   38 1
    37   22   39 1
    38   23   40 1
    39   23   41 1
    40   23   42 1
    41   24   43 1
    42   24   44 1
    43   24   45 1
    44   25   29 1
    45   25   26 1
    46   25   46 1
    47   26   27 1
    48   26   47 1
    49   26   48 1
    50   27   28 1
    51   27   49 1
    52   27   50 1
    53   28   29 1
    54   28   51 1
    55   28   52 1
    56   29   53 1
    57   29   54 1
    58   30   55 1
    59   30   56 1
    60   30   57 1
@<TRIPOS>MOLECULE
ZINC29813510
   51    55     0     0     0
SMALL
USER_CHARGES
2-(dioxoBLAHyl)-N-[(R)-(4-fluorophenyl)-(1-methylimidazol-2-yl)methyl]acetamide
@<TRIPOS>ATOM
      1 C1         -6.3807    1.7396    5.9491 C.3       1 <0>         0.0624
      2 N1         -7.2463    2.4423    4.9986 N.pl3     1 <0>        -0.4472
      3 C2         -7.8677    3.6449    5.2017 C.2       1 <0>        -0.0493
      4 C3         -8.5597    3.9202    4.0797 C.2       1 <0>        -0.0280
      5 N2         -8.3622    2.9155    3.2133 N.2       1 <0>        -0.4740
      6 C4         -7.5805    2.0242    3.7588 C.2       1 <0>         0.1904
      7 C5         -7.1214    0.7438    3.1100 C.3       1 <0>         0.2866
      8 H1         -6.2557    0.3329    3.6500 H         1 <0>         0.1098
      9 C6         -8.2531   -0.2512    3.1062 C.ar      1 <0>        -0.1027
     10 C7         -9.2501   -0.1597    2.1529 C.ar      1 <0>        -0.0644
     11 C8        -10.2854   -1.0750    2.1449 C.ar      1 <0>        -0.1487
     12 C9        -10.3303   -2.0770    3.0994 C.ar      1 <0>         0.1073
     13 C10        -9.3342   -2.1643    4.0572 C.ar      1 <0>        -0.1506
     14 C11        -8.2966   -1.2515    4.0595 C.ar      1 <0>        -0.0754
     15 F1        -11.3453   -2.9685    3.0965 F         1 <0>        -0.1363
     16 N3         -6.7060    1.0163    1.7318 N.am      1 <0>        -0.7226
     17 C12        -5.4531    1.4429    1.4775 C.2       1 <0>         0.4940
     18 O1         -4.6695    1.6012    2.3895 O.2       1 <0>        -0.5116
     19 C13        -5.0258    1.7231    0.0597 C.3       1 <0>         0.1257
     20 N4         -3.6308    2.1705    0.0495 N.pl3     1 <0>        -0.9023
     21 C14        -2.4798    1.3653    0.0337 C.ar      1 <0>         0.1453
     22 C15        -2.4108   -0.0267    0.0255 C.ar      1 <0>        -0.1119
     23 C16        -1.1839   -0.6780    0.0101 C.ar      1 <0>        -0.0858
     24 C17         0.0021   -0.0041    0.0020 C.ar      1 <0>        -0.1156
     25 C18        -0.0170    1.4008    0.0097 C.ar      1 <0>        -0.0252
     26 C19        -1.2676    2.0526    0.0313 C.ar      1 <0>        -0.0758
     27 C20        -1.3275    3.4506    0.0348 C.ar      1 <0>        -0.6411
     28 C21        -0.1993    4.1840    0.0282 C.ar      1 <0>         0.0481
     29 C22         1.0475    3.5461    0.0117 C.ar      1 <0>        -0.1364
     30 C23         1.1479    2.1860    0.0028 C.ar      1 <0>        -0.0492
     31 S1         -3.0719    3.7514    0.0537 S.o2      1 <0>         2.6692
     32 O2         -3.4241    4.3392   -1.1912 O.2       1 <0>        -0.9340
     33 O3         -3.3996    4.3239    1.3123 O.2       1 <0>        -0.9212
     34 H2         -6.2969    2.3293    6.8739 H         1 <0>         0.0932
     35 H3         -5.3822    1.6070    5.5070 H         1 <0>         0.0881
     36 H4         -6.8131    0.7549    6.1801 H         1 <0>         0.0804
     37 H5         -7.8130    4.2558    6.0906 H         1 <0>         0.1755
     38 H6         -9.1642    4.7982    3.9062 H         1 <0>         0.1711
     39 H7         -9.2176    0.6251    1.4115 H         1 <0>         0.1393
     40 H8        -11.0616   -1.0062    1.3971 H         1 <0>         0.1408
     41 H9         -9.3683   -2.9452    4.8025 H         1 <0>         0.1395
     42 H10        -7.5195   -1.3194    4.8065 H         1 <0>         0.1325
     43 H11        -7.4167    0.8727    0.9046 H         1 <0>         0.4283
     44 H12        -5.1211    0.8059   -0.5400 H         1 <0>         0.1271
     45 H13        -5.6660    2.5088   -0.3677 H         1 <0>         0.1262
     46 H14        -3.3222   -0.6061    0.0316 H         1 <0>         0.1314
     47 H15        -1.1684   -1.7579    0.0047 H         1 <0>         0.1337
     48 H16         0.9391   -0.5409   -0.0105 H         1 <0>         0.1388
     49 H17        -0.2552    5.2625    0.0353 H         1 <0>         0.1406
     50 H18         1.9474    4.1433    0.0064 H         1 <0>         0.1413
     51 H19         2.1193    1.7144   -0.0098 H         1 <0>         0.1428
@<TRIPOS>BOND
     1    1    2 1
     2    1   34 1
     3    1   35 1
     4    1   36 1
     5    2    6 1
     6    2    3 1
     7    3    4 2
     8    3   37 1
     9    4    5 1
    10    4   38 1
    11    5    6 2
    12    6    7 1
    13    7    8 1
    14    7    9 1
    15    7   16 1
    16    9   14 ar
    17    9   10 ar
    18   10   11 ar
    19   10   39 1
    20   11   12 ar
    21   11   40 1
    22   12   13 ar
    23   12   15 1
    24   13   14 ar
    25   13   41 1
    26   14   42 1
    27   16   17 am
    28   16   43 1
    29   17   18 2
    30   17   19 1
    31   19   20 1
    32   19   44 1
    33   19   45 1
    34   20   31 1
    35   20   21 1
    36   21   26 ar
    37   21   22 ar
    38   22   23 ar
    39   22   46 1
    40   23   24 ar
    41   23   47 1
    42   24   25 ar
    43   24   48 1
    44   25   30 ar
    45   25   26 ar
    46   26   27 ar
    47   27   28 ar
    48   27   31 1
    49   28   29 ar
    50   28   49 1
    51   29   30 ar
    52   29   50 1
    53   30   51 1
    54   31   32 2
    55   31   33 2
@<TRIPOS>MOLECULE
ZINC41108152
   47    51     0     0     0
SMALL
USER_CHARGES

@<TRIPOS>ATOM
      1 C1          2.1689    1.9634   -0.1989 C.3       1 <0>        -0.1318
      2 C2          2.7613    0.5791   -0.2610 C.ar      1 <0>        -0.0265
      3 C3          3.2009    0.0685   -1.4654 C.ar      1 <0>        -0.1223
      4 C4          3.7444   -1.2021   -1.5241 C.ar      1 <0>        -0.0807
      5 C5          3.8509   -1.9690   -0.3773 C.ar      1 <0>        -0.1225
      6 C6          3.4151   -1.4698    0.8327 C.ar      1 <0>        -0.0734
      7 C7          2.8717   -0.1865    0.8996 C.ar      1 <0>        -0.0349
      8 C8          2.4079    0.3573    2.1953 C.2       1 <0>         0.1714
      9 N1          1.8659    1.5233    2.4518 N.2       1 <0>        -0.2561
     10 N2          1.4810    1.8615    3.7315 N.pl3     1 <0>        -0.4318
     11 C9          0.8076    3.0441    4.1048 C.2       1 <0>         0.4708
     12 N3          0.0985    3.7622    3.2696 N.2       1 <0>        -0.6511
     13 C10         0.9809    3.3943    5.5377 C.2       1 <0>        -0.2459
     14 C11         1.0266    4.7178    5.9679 C.2       1 <0>         0.1174
     15 C12         1.4251    5.0146    7.2741 C.2       1 <0>        -0.0569
     16 C13         1.3886    6.2689    7.8742 C.2       1 <0>        -0.0941
     17 C14         1.8717    6.1089    9.1686 C.2       1 <0>        -0.1967
     18 C15         2.1873    4.7736    9.3225 C.2       1 <0>         0.0192
     19 O1          1.9083    4.1309    8.1776 O.3       1 <0>        -0.1208
     20 S1          2.8416    4.0345   10.7821 S.3       1 <0>         0.0183
     21 C16         3.0309    2.2851   10.3411 C.3       1 <0>        -0.0354
     22 C17         3.5901    1.5281   11.5181 C.2       1 <0>        -0.0173
     23 C18         2.8690    0.9297   12.4831 C.2       1 <0>        -0.1715
     24 C19         3.7914    0.3435   13.3799 C.2       1 <0>        -0.2154
     25 C20         5.0211    0.6187   12.9093 C.2       1 <0>        -0.0226
     26 O2          4.8930    1.3315   11.7783 O.3       1 <0>        -0.1706
     27 C21         1.1019    2.2648    6.4833 C.2       1 <0>         0.5454
     28 O3          0.7949    2.3942    7.6584 O.2       1 <0>        -0.4317
     29 N4          1.5607    1.0867    6.0120 N.2       1 <0>        -0.5388
     30 C22         1.7565    0.9463    4.7261 C.2       1 <0>         0.3916
     31 S2          2.4362   -0.4107    3.8092 S.3       1 <0>         0.1076
     32 H1          2.9607    2.6894   -0.0141 H         1 <0>         0.0791
     33 H2          1.6800    2.1922   -1.1459 H         1 <0>         0.0740
     34 H3          1.4377    2.0098    0.6081 H         1 <0>         0.0882
     35 H4          3.1201    0.6621   -2.3640 H         1 <0>         0.1356
     36 H5          4.0866   -1.5975   -2.4691 H         1 <0>         0.1340
     37 H6          4.2758   -2.9605   -0.4296 H         1 <0>         0.1373
     38 H7          3.4985   -2.0695    1.7271 H         1 <0>         0.1325
     39 H8          0.0169    3.4883    2.3427 H         1 <0>         0.3583
     40 H9          0.7542    5.5149    5.2921 H         1 <0>         0.1750
     41 H10         1.0505    7.1896    7.4221 H         1 <0>         0.1690
     42 H11         1.9797    6.8836    9.9133 H         1 <0>         0.1649
     43 H12         2.0593    1.8712   10.0714 H         1 <0>         0.1322
     44 H13         3.7117    2.1953    9.4947 H         1 <0>         0.1099
     45 H14         1.7919    0.9028   12.5587 H         1 <0>         0.1544
     46 H15         3.5543   -0.2174   14.2719 H         1 <0>         0.1541
     47 H16         5.9533    0.3146   13.3620 H         1 <0>         0.2082
@<TRIPOS>BOND
     1    1    2 1
     2    1   32 1
     3    1   33 1
     4    1   34 1
     5    2    7 ar
     6    2    3 ar
     7    3    4 ar
     8    3   35 1
     9    4    5 ar
    10    4   36 1
    11    5    6 ar
    12    5   37 1
    13    6    7 ar
    14    6   38 1
    15    7    8 1
    16    8   31 1
    17    8    9 2
    18    9   10 1
    19   10   30 1
    20   10   11 1
    21   11   12 2
    22   11   13 1
    23   12   39 1
    24   13   14 2
    25   13   27 1
    26   14   15 1
    27   14   40 1
    28   15   19 1
    29   15   16 2
    30   16   17 1
    31   16   41 1
    32   17   18 2
    33   17   42 1
    34   18   19 1
    35   18   20 1
    36   20   21 1
    37   21   22 1
    38   21   43 1
    39   21   44 1
    40   22   26 1
    41   22   23 2
    42   23   24 1
    43   23   45 1
    44   24   25 2
    45   24   46 1
    46   25   26 1
    47   25   47 1
    48   27   28 2
    49   27   29 1
    50   29   30 2
    51   30   31 1
@<TRIPOS>MOLECULE
ZINC64945617
   43    46     0     0     0
SMALL
USER_CHARGES

@<TRIPOS>ATOM
      1 C1         -0.0632    1.5020    0.0159 C.3       1 <0>        -0.1142
      2 C2         -0.0306   -0.0047    0.0058 C.ar      1 <0>        -0.0960
      3 C3         -0.6216   -0.7006   -1.0329 C.ar      1 <0>        -0.0821
      4 C4         -0.5942   -2.0814   -1.0453 C.ar      1 <0>        -0.1204
      5 C5          0.0281   -2.7714   -0.0133 C.ar      1 <0>         0.1722
      6 C6          0.6214   -2.0697    1.0287 C.ar      1 <0>        -0.1203
      7 C7          0.5948   -0.6879    1.0322 C.ar      1 <0>        -0.0701
      8 Br1         1.4697   -3.0039    2.4371 Br        1 <0>        -0.0426
      9 N1          0.0572   -4.1707   -0.0227 N.am      1 <0>        -0.6652
     10 C8         -0.0419   -4.8390   -1.1889 C.2       1 <0>         0.4991
     11 O1         -0.0553   -4.2298   -2.2377 O.2       1 <0>        -0.4956
     12 C9         -0.1360   -6.3430   -1.1899 C.3       1 <0>         0.1459
     13 N2         -0.2339   -6.8253   -2.5698 N.am      1 <0>        -0.4288
     14 C10         0.7981   -7.1609   -3.3726 C.2       1 <0>         0.6668
     15 O2          1.9798   -7.1169   -3.0787 O.2       1 <0>        -0.5190
     16 N3          0.2884   -7.5542   -4.5579 N.am      1 <0>        -0.5157
     17 C11         0.8834   -7.9923   -5.7128 C.2       1 <0>         0.4139
     18 N4          0.1836   -8.3259   -6.7562 N.2       1 <0>        -0.4603
     19 C12        -1.1466   -8.2663   -6.7766 C.2       1 <0>         0.0574
     20 C13        -1.8942   -7.8373   -5.6693 C.2       1 <0>        -0.1097
     21 C14        -1.0884   -7.4578   -4.4809 C.2       1 <0>         0.3314
     22 N5         -1.4174   -7.0281   -3.2950 N.2       1 <0>        -0.2519
     23 C15        -3.2877   -7.8283   -5.8392 C.2       1 <0>        -0.0854
     24 C16        -3.8283   -8.2160   -7.0104 C.2       1 <0>        -0.1461
     25 S1         -2.3936   -8.6319   -7.9869 S.3       1 <0>         0.1786
     26 C17        -5.2827   -8.2819   -7.3993 C.3       1 <0>        -0.0709
     27 C18        -4.1803   -7.3846   -4.7090 C.3       1 <0>        -0.1046
     28 H1          0.8129    1.8878   -0.5054 H         1 <0>         0.0738
     29 H2         -0.9665    1.8492   -0.4857 H         1 <0>         0.0704
     30 H3         -0.0595    1.8586    1.0458 H         1 <0>         0.0696
     31 H4         -1.1055   -0.1637   -1.8354 H         1 <0>         0.1337
     32 H5         -1.0565   -2.6240   -1.8565 H         1 <0>         0.1526
     33 H6          1.0595   -0.1414    1.8396 H         1 <0>         0.1379
     34 H7          0.1486   -4.6595    0.8101 H         1 <0>         0.4156
     35 H8          0.7536   -6.7630   -0.7205 H         1 <0>         0.1371
     36 H9         -1.0208   -6.6521   -0.6333 H         1 <0>         0.1395
     37 H10         1.9603   -8.0617   -5.7569 H         1 <0>         0.2271
     38 H11        -5.5857   -7.3300   -7.8355 H         1 <0>         0.0854
     39 H12        -5.4279   -9.0785   -8.1291 H         1 <0>         0.0792
     40 H13        -5.8865   -8.4849   -6.5149 H         1 <0>         0.0881
     41 H14        -4.3475   -6.3098   -4.7786 H         1 <0>         0.0747
     42 H15        -5.1353   -7.9059   -4.7742 H         1 <0>         0.0724
     43 H16        -3.7036   -7.6172   -3.7567 H         1 <0>         0.0764
@<TRIPOS>BOND
     1    1    2 1
     2    1   28 1
     3    1   29 1
     4    1   30 1
     5    2    7 ar
     6    2    3 ar
     7    3    4 ar
     8    3   31 1
     9    4    5 ar
    10    4   32 1
    11    5    6 ar
    12    5    9 1
    13    6    7 ar
    14    6    8 1
    15    7   33 1
    16    9   10 am
    17    9   34 1
    18   10   11 2
    19   10   12 1
    20   12   13 1
    21   12   35 1
    22   12   36 1
    23   13   22 1
    24   13   14 am
    25   14   15 2
    26   14   16 am
    27   16   21 1
    28   16   17 1
    29   17   18 2
    30   17   37 1
    31   18   19 1
    32   19   25 1
    33   19   20 2
    34   20   21 1
    35   20   23 1
    36   21   22 2
    37   23   24 2
    38   23   27 1
    39   24   25 1
    40   24   26 1
    41   26   38 1
    42   26   39 1
    43   26   40 1
    44   27   41 1
    45   27   42 1
    46   27   43 1
@<TRIPOS>MOLECULE
ZINC13209610
   45    47     0     0     0
SMALL
USER_CHARGES
1-[2-[[3-cyano-6-(2-thienyl)-4-(trifluoromethyl)-2-pyridyl]sulfanyl]acetyl]piperidine-4-carboxylic acid
@<TRIPOS>ATOM
      1 C1         -1.0814    1.9160    0.0166 C.2       1 <0>        -0.1665
      2 C2         -0.8663    3.2743    0.0265 C.2       1 <0>        -0.0821
      3 C3          0.4248    3.7374    0.0170 C.2       1 <0>        -0.1534
      4 S1          1.3604    2.2168    0.0010 S.3       1 <0>         0.0849
      5 C4         -0.0126    1.0758    0.0080 C.2       1 <0>        -0.1471
      6 C5          0.9129    5.1286    0.0197 C.ar      1 <0>         0.2799
      7 C6          2.2893    5.3759    0.0083 C.ar      1 <0>        -0.1332
      8 C7          2.7431    6.6673    0.0108 C.ar      1 <0>        -0.0657
      9 C8          1.8042    7.7091    0.0249 C.ar      1 <0>        -0.0266
     10 C9          0.4327    7.3926    0.0360 C.ar      1 <0>         0.1594
     11 N1          0.0379    6.1300    0.0276 N.ar      1 <0>        -0.4606
     12 S2         -0.7647    8.6851    0.0538 S.3       1 <0>         0.0677
     13 C10        -2.2859    7.7042    0.0627 C.3       1 <0>        -0.1497
     14 C11        -3.4779    8.6260    0.0786 C.2       1 <0>         0.5291
     15 O1         -3.3151    9.8278    0.0833 O.2       1 <0>        -0.5347
     16 N2         -4.7250    8.1149    0.0874 N.am      1 <0>        -0.5956
     17 C12        -4.9383    6.6612    0.0756 C.3       1 <0>         0.1038
     18 C13        -5.8717    6.3047   -1.0799 C.3       1 <0>        -0.1116
     19 C14        -7.1568    7.1280   -0.9673 C.3       1 <0>        -0.1293
     20 C15        -6.8197    8.6180   -1.0586 C.3       1 <0>        -0.1103
     21 C16        -5.8970    9.0007    0.1029 C.3       1 <0>         0.1111
     22 C17        -8.0918    6.7552   -2.0889 C.2       1 <0>         0.4646
     23 O2         -8.4515    7.5947   -2.8798 O.co2     1 <0>        -0.6377
     24 C18         2.2347    9.0749    0.0276 C.1       1 <0>         0.2320
     25 N3          2.5761   10.1584    0.0297 N.1       1 <0>        -0.3549
     26 C19         4.2206    6.9635   -0.0018 C.3       1 <0>         0.5094
     27 F1          4.9370    5.7618   -0.0151 F         1 <0>        -0.1645
     28 F2          4.5373    7.7078   -1.1432 F         1 <0>        -0.1636
     29 F3          4.5593    7.6956    1.1412 F         1 <0>        -0.1641
     30 H1         -2.0868    1.5216    0.0186 H         1 <0>         0.1458
     31 H2         -1.6980    3.9632    0.0375 H         1 <0>         0.1475
     32 H3          0.0021   -0.0041    0.0020 H         1 <0>         0.1937
     33 H4          2.9894    4.5536   -0.0021 H         1 <0>         0.1626
     34 H5         -2.3210    7.0801   -0.8302 H         1 <0>         0.1303
     35 H6         -2.3045    7.0708    0.9496 H         1 <0>         0.1286
     36 H7         -3.9833    6.1528   -0.0576 H         1 <0>         0.0808
     37 H8         -5.3916    6.3508    1.0170 H         1 <0>         0.0738
     38 H9         -6.1150    5.2430   -1.0383 H         1 <0>         0.0854
     39 H10        -5.3779    6.5285   -2.0255 H         1 <0>         0.0605
     40 H11        -7.6373    6.9223   -0.0108 H         1 <0>         0.0706
     41 H12        -7.7378    9.2028   -1.0018 H         1 <0>         0.0767
     42 H13        -6.3170    8.8200   -2.0044 H         1 <0>         0.0658
     43 H14        -6.4301    8.8850    1.0465 H         1 <0>         0.0677
     44 H15        -5.5745   10.0355   -0.0124 H         1 <0>         0.0903
     45 O3         -8.5249    5.4904   -2.2092 O.co2     1 <0>        -0.7708
@<TRIPOS>BOND
     1    1    5 2
     2    1    2 1
     3    1   30 1
     4    2    3 2
     5    2   31 1
     6    3    4 1
     7    3    6 1
     8    4    5 1
     9    5   32 1
    10    6   11 ar
    11    6    7 ar
    12    7    8 ar
    13    7   33 1
    14    8    9 ar
    15    8   26 1
    16    9   10 ar
    17    9   24 1
    18   10   11 ar
    19   10   12 1
    20   12   13 1
    21   13   14 1
    22   13   34 1
    23   13   35 1
    24   14   15 2
    25   14   16 am
    26   16   21 1
    27   16   17 1
    28   17   18 1
    29   17   36 1
    30   17   37 1
    31   18   19 1
    32   18   38 1
    33   18   39 1
    34   19   20 1
    35   19   22 1
    36   19   40 1
    37   20   21 1
    38   20   41 1
    39   20   42 1
    40   21   43 1
    41   21   44 1
    42   22   23 2
    43   22   45 1
    44   24   25 3
    45   26   27 1
    46   26   28 1
    47   26   29 1
@<TRIPOS>MOLECULE
ZINC26893958
   58    61     0     0     0
SMALL
USER_CHARGES
3-[(5E)-5-[[2-[(3R,5S)-3,5-dimethyl-1-piperidyl]-7-methyl-4-oxo-pyrido[1,2-a]pyrimidin-3-yl]methylene]-4-oxo-2-thioxo-thiazolidin-3-yl]propanoic acid
@<TRIPOS>ATOM
      1 C1         -0.3045    3.0644   -6.5367 C.3       1 <0>        -0.1101
      2 C2          0.9979    3.7976   -6.3439 C.2       1 <0>        -0.1384
      3 C3          1.6666    4.3388   -7.4504 C.2       1 <0>        -0.0152
      4 C4          2.8443    5.0006   -7.2668 C.2       1 <0>        -0.1439
      5 C5          3.3714    5.1318   -5.9694 C.2       1 <0>         0.4218
      6 N1          4.5237    5.7806   -5.7997 N.2       1 <0>        -0.5750
      7 C6          5.0654    5.9336   -4.6001 C.2       1 <0>         0.4304
      8 C7          4.4110    5.3980   -3.4658 C.2       1 <0>        -0.3290
      9 C8          3.1914    4.7061   -3.6584 C.2       1 <0>         0.5459
     10 O1          2.5962    4.2237   -2.7103 O.2       1 <0>        -0.5081
     11 N2          2.6958    4.5935   -4.9097 N.am      1 <0>        -0.4225
     12 C9          1.5193    3.9328   -5.1039 C.2       1 <0>         0.1105
     13 C10         4.9646    5.5451   -2.1726 C.2       1 <0>         0.1533
     14 C11         4.3226    6.3047   -1.2378 C.2       1 <0>        -0.2386
     15 C12         3.1431    7.0924   -1.3654 C.2       1 <0>         0.5402
     16 O2          2.5481    7.1622   -2.4264 O.2       1 <0>        -0.4570
     17 N3          2.7125    7.7461   -0.3005 N.am      1 <0>        -0.5175
     18 C13         3.3761    7.6734    0.8749 C.2       1 <0>         0.2951
     19 S1          3.0076    8.4326    2.3644 S.2       1 <0>        -0.3438
     20 S2          4.7335    6.5813    0.4797 S.3       1 <0>         0.0329
     21 C14         1.5021    8.5659   -0.3970 C.3       1 <0>         0.1030
     22 C15         0.2794    7.7121   -0.0554 C.3       1 <0>        -0.1660
     23 C16        -0.9657    8.5553   -0.1546 C.2       1 <0>         0.4741
     24 O3         -0.8839    9.7184   -0.4713 O.co2     1 <0>        -0.6373
     25 O4         -2.1660    8.0128    0.1036 O.co2     1 <0>        -0.7649
     26 N4          6.2578    6.6091   -4.4585 N.pl3     1 <0>        -0.4708
     27 C17         6.8656    6.8839   -5.7667 C.3       1 <0>         0.0673
     28 C18         8.2512    7.5022   -5.5672 C.3       1 <0>        -0.0932
     29 H1          8.8950    6.7960   -5.0225 H         1 <0>         0.0805
     30 C19         8.1153    8.7988   -4.7641 C.3       1 <0>        -0.1141
     31 C20         7.4358    8.4927   -3.4266 C.3       1 <0>        -0.0874
     32 H2          8.0644    7.8051   -2.8418 H         1 <0>         0.0849
     33 C21         6.0738    7.8457   -3.6882 C.3       1 <0>         0.0562
     34 C22         7.2418    9.7924   -2.6429 C.3       1 <0>        -0.1503
     35 C23         8.8750    7.8086   -6.9303 C.3       1 <0>        -0.1454
     36 H3         -0.5665    3.0571   -7.6050 H         1 <0>         0.0778
     37 H4         -1.0981    3.5710   -5.9680 H         1 <0>         0.0817
     38 H5         -0.1995    2.0299   -6.1778 H         1 <0>         0.0784
     39 H6          1.2519    4.2320   -8.4419 H         1 <0>         0.1555
     40 H7          3.3690    5.4213   -8.1119 H         1 <0>         0.1683
     41 H8          0.9972    3.5126   -4.2569 H         1 <0>         0.1842
     42 H9          5.9125    5.0474   -1.9202 H         1 <0>         0.1557
     43 H10         1.5713    9.4064    0.3092 H         1 <0>         0.1148
     44 H11         1.4033    8.9547   -1.4212 H         1 <0>         0.1030
     45 H12         0.2103    6.8716   -0.7616 H         1 <0>         0.0671
     46 H13         0.3783    7.3232    0.9688 H         1 <0>         0.0746
     47 H14         6.9616    5.9446   -6.3310 H         1 <0>         0.0871
     48 H15         6.2291    7.5847   -6.3268 H         1 <0>         0.0581
     49 H16         9.1134    9.2240   -4.5826 H         1 <0>         0.0698
     50 H17         7.5074    9.5193   -5.3310 H         1 <0>         0.0633
     51 H18         5.4410    8.5420   -4.2581 H         1 <0>         0.0534
     52 H19         5.5893    7.6114   -2.7288 H         1 <0>         0.0888
     53 H20         6.7536    9.5718   -1.6822 H         1 <0>         0.0598
     54 H21         6.6116   10.4809   -3.2249 H         1 <0>         0.0559
     55 H22         8.2208   10.2588   -2.4582 H         1 <0>         0.0636
     56 H23         9.8709    8.2530   -6.7862 H         1 <0>         0.0588
     57 H24         8.2334    8.5158   -7.4765 H         1 <0>         0.0556
     58 H25         8.9691    6.8773   -7.5081 H         1 <0>         0.0571
@<TRIPOS>BOND
     1    1    2 1
     2    1   36 1
     3    1   37 1
     4    1   38 1
     5    2   12 2
     6    2    3 1
     7    3    4 2
     8    3   39 1
     9    4    5 1
    10    4   40 1
    11    5   11 1
    12    5    6 2
    13    6    7 1
    14    7    8 2
    15    7   26 1
    16    8    9 1
    17    8   13 1
    18    9   10 2
    19    9   11 am
    20   11   12 1
    21   12   41 1
    22   13   14 2
    23   13   42 1
    24   14   20 1
    25   14   15 1
    26   15   16 2
    27   15   17 am
    28   17   18 1
    29   17   21 1
    30   18   19 2
    31   18   20 1
    32   21   22 1
    33   21   43 1
    34   21   44 1
    35   22   23 1
    36   22   45 1
    37   22   46 1
    38   23   24 2
    39   23   25 1
    40   26   33 1
    41   26   27 1
    42   27   28 1
    43   27   47 1
    44   27   48 1
    45   28   29 1
    46   28   30 1
    47   28   35 1
    48   30   31 1
    49   30   49 1
    50   30   50 1
    51   31   32 1
    52   31   33 1
    53   31   34 1
    54   33   51 1
    55   33   52 1
    56   34   53 1
    57   34   54 1
    58   34   55 1
    59   35   56 1
    60   35   57 1
    61   35   58 1
@<TRIPOS>MOLECULE
ZINC39691584
   47    51     0     0     0
SMALL
USER_CHARGES

@<TRIPOS>ATOM
      1 C1         -0.0184    1.5028    0.0103 C.3       1 <0>        -0.0828
      2 C2          0.0021   -0.0041    0.0020 C.ar      1 <0>         0.3534
      3 N1          0.0053   -0.6427   -1.1525 N.ar      1 <0>        -0.4937
      4 C3          0.0231   -1.9611   -1.1840 C.ar      1 <0>         0.1376
      5 C4          0.0394   -2.7261   -0.0005 C.ar      1 <0>        -0.1795
      6 C5          0.0570   -4.1786   -0.1805 C.2       1 <0>        -0.0756
      7 C6          0.0562   -4.6379   -1.4483 C.2       1 <0>        -0.1433
      8 S1          0.0324   -3.1865   -2.4662 S.3       1 <0>         0.1027
      9 C7          0.0725   -6.0680   -1.8953 C.3       1 <0>        -0.0384
     10 C8          0.4640   -6.9460   -0.6982 C.3       1 <0>        -0.1154
     11 C9         -0.3723   -6.5253    0.5138 C.3       1 <0>        -0.1190
     12 C10         0.0746   -5.1464    0.9996 C.3       1 <0>        -0.0699
     13 C11         0.0359   -1.9786    1.2104 C.ar      1 <0>         0.1918
     14 N2          0.0218   -0.6557    1.1504 N.ar      1 <0>        -0.5375
     15 S2          0.0549   -2.8018    2.7681 S.3       1 <0>         0.0831
     16 C12         0.0436   -1.4508    3.9786 C.3       1 <0>        -0.0756
     17 C13         0.0585   -2.0247    5.3720 C.2       1 <0>         0.4602
     18 N3          0.0816   -3.3288    5.5064 N.2       1 <0>        -0.6231
     19 C14         0.0963   -3.9336    6.6989 C.2       1 <0>         0.5646
     20 O1          0.1181   -5.1496    6.7877 O.2       1 <0>        -0.4710
     21 C15         0.0856   -3.0691    7.9219 C.2       1 <0>        -0.3481
     22 C16         0.0974   -3.4485    9.2084 C.2       1 <0>         0.1152
     23 C17         0.0830   -2.3642   10.2618 C.3       1 <0>        -0.1494
     24 H1         -0.8112   -2.4337   10.8813 H         1 <0>         0.1606
     25 S3          0.0525   -0.8425    9.2300 S.3       1 <0>         0.0661
     26 C18         0.0594   -1.6191    7.6339 C.2       1 <0>         0.2832
     27 N4          0.0528   -1.1855    6.3958 N.2       1 <0>        -0.5597
     28 C19         1.3283   -2.4180   11.1087 C.2       1 <0>         0.5244
     29 O2          2.2841   -1.7132   10.8328 O.co2     1 <0>        -0.6403
     30 O3          1.3801   -3.1665   12.0698 O.co2     1 <0>        -0.6478
     31 C20         0.1237   -4.9060    9.5907 C.3       1 <0>        -0.1488
     32 H2          1.0042    1.8801    0.0026 H         1 <0>         0.0903
     33 H3         -0.5455    1.8639   -0.8728 H         1 <0>         0.0882
     34 H4         -0.5286    1.8543    0.9071 H         1 <0>         0.0907
     35 H5         -0.9178   -6.3527   -2.2509 H         1 <0>         0.0870
     36 H6          0.8008   -6.1939   -2.6965 H         1 <0>         0.0846
     37 H7          0.2677   -7.9923   -0.9325 H         1 <0>         0.0762
     38 H8          1.5227   -6.8111   -0.4766 H         1 <0>         0.0708
     39 H9         -1.4245   -6.4861    0.2319 H         1 <0>         0.0669
     40 H10        -0.2399   -7.2523    1.3152 H         1 <0>         0.0760
     41 H11         1.0851   -5.2120    1.4031 H         1 <0>         0.0887
     42 H12        -0.6072   -4.7921    1.7727 H         1 <0>         0.0915
     43 H13         0.9247   -0.8257    3.8337 H         1 <0>         0.1302
     44 H14        -0.8551   -0.8491    3.8431 H         1 <0>         0.1295
     45 H15         0.1307   -5.5181    8.6889 H         1 <0>         0.1086
     46 H16         1.0195   -5.1119   10.1765 H         1 <0>         0.1037
     47 H17        -0.7602   -5.1421   10.1833 H         1 <0>         0.0931
@<TRIPOS>BOND
     1    1    2 1
     2    1   32 1
     3    1   33 1
     4    1   34 1
     5    2   14 ar
     6    2    3 ar
     7    3    4 ar
     8    4    8 1
     9    4    5 ar
    10    5    6 1
    11    5   13 ar
    12    6   12 1
    13    6    7 2
    14    7    8 1
    15    7    9 1
    16    9   10 1
    17    9   35 1
    18    9   36 1
    19   10   11 1
    20   10   37 1
    21   10   38 1
    22   11   12 1
    23   11   39 1
    24   11   40 1
    25   12   41 1
    26   12   42 1
    27   13   14 ar
    28   13   15 1
    29   15   16 1
    30   16   17 1
    31   16   43 1
    32   16   44 1
    33   17   27 1
    34   17   18 2
    35   18   19 1
    36   19   20 2
    37   19   21 1
    38   21   26 1
    39   21   22 2
    40   22   23 1
    41   22   31 1
    42   23   24 1
    43   23   25 1
    44   23   28 1
    45   25   26 1
    46   26   27 2
    47   28   29 2
    48   28   30 1
    49   31   45 1
    50   31   46 1
    51   31   47 1
@<TRIPOS>MOLECULE
ZINC59135939
   52    55     0     0     0
SMALL
USER_CHARGES

@<TRIPOS>ATOM
      1 C1          0.6238    0.8876   -0.0957 C.3       1 <0>        -0.1196
      2 C2          0.1366   -0.5172    0.1498 C.ar      1 <0>        -0.0679
      3 C3          0.0423   -1.4098   -0.9003 C.ar      1 <0>        -0.0514
      4 C4         -0.4051   -2.6986   -0.6759 C.ar      1 <0>        -0.0389
      5 C5         -0.7590   -3.0985    0.5999 C.ar      1 <0>        -0.0524
      6 C6         -0.6670   -2.2109    1.6537 C.ar      1 <0>        -0.0981
      7 C7         -0.2125   -0.9174    1.4325 C.ar      1 <0>         0.1743
      8 N1         -0.1121   -0.0162    2.5008 N.pl3     1 <0>        -0.4092
      9 C8         -1.1151    0.8166    2.9164 C.2       1 <0>        -0.0124
     10 C9         -0.6841    1.5429    3.9599 C.2       1 <0>        -0.0523
     11 C10         0.7034    1.1249    4.2125 C.2       1 <0>        -0.1668
     12 C11         0.9828    0.1480    3.2664 C.2       1 <0>         0.0814
     13 C12         2.2854   -0.5955    3.1196 C.3       1 <0>        -0.0912
     14 C13         1.5718    1.6134    5.2156 C.2       1 <0>         0.1252
     15 C14         1.1153    1.7581    6.5190 C.2       1 <0>        -0.2754
     16 C15        -0.1855    1.2188    6.9417 C.2       1 <0>         0.4943
     17 O1         -0.9779    0.5624    6.0673 O.3       1 <0>        -0.5700
     18 N2         -0.5613    1.3907    8.1973 N.2       1 <0>        -0.5955
     19 C16         0.1985    2.0325    9.0805 C.2       1 <0>         0.5460
     20 S1         -0.3857    2.1982   10.6812 S.2       1 <0>        -0.6641
     21 N3          1.3973    2.5564    8.7859 N.am      1 <0>        -0.5095
     22 C17         1.9162    2.4543    7.5434 C.2       1 <0>         0.5609
     23 O2          3.0063    2.9253    7.2764 O.2       1 <0>        -0.5083
     24 C18         2.1262    3.2156    9.7855 C.ar      1 <0>         0.1259
     25 C19         3.0190    2.5068   10.5774 C.ar      1 <0>        -0.0642
     26 C20         3.7359    3.1589   11.5617 C.ar      1 <0>        -0.1230
     27 C21         3.5655    4.5168   11.7599 C.ar      1 <0>        -0.0888
     28 C22         2.6771    5.2272   10.9741 C.ar      1 <0>        -0.1496
     29 C23         1.9607    4.5820    9.9822 C.ar      1 <0>         0.1249
     30 F1          1.0974    5.2772    9.2098 F         1 <0>        -0.1335
     31 C24        -2.4872    0.9050    2.2995 C.3       1 <0>        -0.0772
     32 N4         -0.5059   -3.6522   -1.8035 N.pl3     1 <0>         0.0336
     33 O3         -0.1971   -3.3039   -2.9192 O.2       1 <0>        -0.1558
     34 O4         -0.8969   -4.7795   -1.6086 O.3       1 <0>        -0.1540
     35 H1          1.7079    0.9203    0.0127 H         1 <0>         0.0835
     36 H2          0.3501    1.1959   -1.1048 H         1 <0>         0.0788
     37 H3          0.1658    1.5626    0.6272 H         1 <0>         0.0832
     38 H4          0.3180   -1.1004   -1.8976 H         1 <0>         0.1603
     39 H5         -1.1081   -4.1059    0.7720 H         1 <0>         0.1613
     40 H6         -0.9442   -2.5235    2.6496 H         1 <0>         0.1570
     41 H7         -1.2452    2.2869    4.5059 H         1 <0>         0.1428
     42 H8          2.9407   -0.0498    2.4407 H         1 <0>         0.0781
     43 H9          2.7649   -0.6842    4.0945 H         1 <0>         0.0860
     44 H10         2.0927   -1.5901    2.7176 H         1 <0>         0.0645
     45 H11         2.5902    1.8741    4.9681 H         1 <0>         0.1346
     46 H12         3.1527    1.4461   10.4243 H         1 <0>         0.1286
     47 H13         4.4306    2.6072   12.1778 H         1 <0>         0.1317
     48 H14         4.1273    5.0235   12.5306 H         1 <0>         0.1325
     49 H15         2.5456    6.2876   11.1318 H         1 <0>         0.1368
     50 H16        -3.1544    0.1997    2.7949 H         1 <0>         0.0696
     51 H17        -2.8747    1.9168    2.4187 H         1 <0>         0.0801
     52 H18        -2.4249    0.6624    1.2387 H         1 <0>         0.0530
@<TRIPOS>BOND
     1    1    2 1
     2    1   35 1
     3    1   36 1
     4    1   37 1
     5    2    7 ar
     6    2    3 ar
     7    3    4 ar
     8    3   38 1
     9    4    5 ar
    10    4   32 1
    11    5    6 ar
    12    5   39 1
    13    6    7 ar
    14    6   40 1
    15    7    8 1
    16    8   12 1
    17    8    9 1
    18    9   10 2
    19    9   31 1
    20   10   11 1
    21   10   41 1
    22   11   12 2
    23   11   14 1
    24   12   13 1
    25   13   42 1
    26   13   43 1
    27   13   44 1
    28   14   15 2
    29   14   45 1
    30   15   22 1
    31   15   16 1
    32   16   17 1
    33   16   18 2
    34   18   19 1
    35   19   20 2
    36   19   21 1
    37   21   22 am
    38   21   24 1
    39   22   23 2
    40   24   29 ar
    41   24   25 ar
    42   25   26 ar
    43   25   46 1
    44   26   27 ar
    45   26   47 1
    46   27   28 ar
    47   27   48 1
    48   28   29 ar
    49   28   49 1
    50   29   30 1
    51   31   50 1
    52   31   51 1
    53   31   52 1
    54   32   33 2
    55   32   34 1
@<TRIPOS>MOLECULE
ZINC17197135
   54    57     0     0     0
SMALL
USER_CHARGES

@<TRIPOS>ATOM
      1 C1          3.1520    1.8505   -4.0391 C.3       1 <0>        -0.1079
      2 C2          2.6406    0.5806   -3.4092 C.ar      1 <0>        -0.1240
      3 C3          2.3864   -0.5270   -4.1971 C.ar      1 <0>        -0.0861
      4 C4          1.9172   -1.6920   -3.6223 C.ar      1 <0>        -0.1992
      5 C5          1.7014   -1.7505   -2.2529 C.ar      1 <0>         0.1272
      6 C6          1.9577   -0.6383   -1.4646 C.ar      1 <0>        -0.1109
      7 C7          2.4318    0.5231   -2.0438 C.ar      1 <0>        -0.0850
      8 C8          1.7243   -0.6983    0.0230 C.3       1 <0>        -0.1072
      9 O1          1.2394   -2.8954   -1.6850 O.3       1 <0>        -0.3059
     10 C9          0.9972   -4.0007   -2.5578 C.3       1 <0>         0.0470
     11 C10         0.4849   -5.1906   -1.7438 C.3       1 <0>         0.1126
     12 N1          0.1251   -6.2837   -2.6503 N.pl3     1 <0>        -0.3848
     13 C11        -1.1188   -6.5639   -3.0894 C.2       1 <0>         0.0111
     14 C12        -1.0685   -7.6444   -3.9126 C.2       1 <0>        -0.2052
     15 C13         0.2578   -8.0609   -3.9953 C.2       1 <0>        -0.1521
     16 C14         1.0041   -7.1945   -3.2017 C.2       1 <0>         0.0320
     17 C15         2.3909   -7.2400   -2.9978 C.2       1 <0>         0.0813
     18 C16         2.9006   -7.4697   -1.7204 C.2       1 <0>        -0.2376
     19 C17         2.0451   -7.8063   -0.6333 C.2       1 <0>         0.4820
     20 O2          0.7119   -7.9108   -0.8190 O.3       1 <0>        -0.6087
     21 N2          2.5737   -8.0157    0.5602 N.2       1 <0>        -0.6622
     22 C18         3.8827   -7.9221    0.7808 C.2       1 <0>         0.6657
     23 O3          4.3000   -8.1285    1.9069 O.2       1 <0>        -0.5620
     24 N3          4.7640   -7.6106   -0.1835 N.am      1 <0>        -0.5489
     25 C19         4.3443   -7.3792   -1.4465 C.2       1 <0>         0.5633
     26 O4          5.1346   -7.1004   -2.3294 O.2       1 <0>        -0.5166
     27 C20         6.1300   -7.5297    0.1218 C.ar      1 <0>         0.1435
     28 C21         6.7756   -6.3009    0.0997 C.ar      1 <0>        -0.0761
     29 C22         8.1211   -6.2232    0.4011 C.ar      1 <0>        -0.1447
     30 C23         8.8263   -7.3700    0.7253 C.ar      1 <0>         0.0916
     31 C24         8.1841   -8.5967    0.7479 C.ar      1 <0>        -0.1442
     32 C25         6.8375   -8.6777    0.4521 C.ar      1 <0>        -0.0683
     33 F1         10.1426   -7.2921    1.0195 F         1 <0>        -0.1428
     34 H1          4.2418    1.8341   -4.0567 H         1 <0>         0.0669
     35 H2          2.7733    1.9287   -5.0582 H         1 <0>         0.0633
     36 H3          2.8109    2.7073   -3.4579 H         1 <0>         0.0635
     37 H4          2.5546   -0.4809   -5.2630 H         1 <0>         0.1231
     38 H5          1.7182   -2.5565   -4.2382 H         1 <0>         0.1277
     39 H6          2.6353    1.3880   -1.4299 H         1 <0>         0.1273
     40 H7          2.6345   -1.0337    0.5203 H         1 <0>         0.0696
     41 H8          1.4544    0.2923    0.3887 H         1 <0>         0.0638
     42 H9          0.9154   -1.3971    0.2360 H         1 <0>         0.0717
     43 H10         0.2504   -3.7202   -3.3006 H         1 <0>         0.0689
     44 H11         1.9241   -4.2765   -3.0606 H         1 <0>         0.0668
     45 H12         1.2653   -5.5267   -1.0611 H         1 <0>         0.1016
     46 H13        -0.3927   -4.8889   -1.1721 H         1 <0>         0.1018
     47 H14        -2.0127   -6.0170   -2.8283 H         1 <0>         0.1562
     48 H15        -1.9095   -8.1001   -4.4141 H         1 <0>         0.1324
     49 H16         0.6357   -8.8941   -4.5692 H         1 <0>         0.1345
     50 H17         3.0641   -7.0971   -3.8302 H         1 <0>         0.1436
     51 H18         6.2260   -5.4063   -0.1534 H         1 <0>         0.1303
     52 H19         8.6238   -5.2674    0.3837 H         1 <0>         0.1376
     53 H20         8.7358   -9.4901    1.0006 H         1 <0>         0.1385
     54 H21         6.3360   -9.6339    0.4742 H         1 <0>         0.1339
@<TRIPOS>BOND
     1    1    2 1
     2    1   34 1
     3    1   35 1
     4    1   36 1
     5    2    7 ar
     6    2    3 ar
     7    3    4 ar
     8    3   37 1
     9    4    5 ar
    10    4   38 1
    11    5    6 ar
    12    5    9 1
    13    6    7 ar
    14    6    8 1
    15    7   39 1
    16    8   40 1
    17    8   41 1
    18    8   42 1
    19    9   10 1
    20   10   11 1
    21   10   43 1
    22   10   44 1
    23   11   12 1
    24   11   45 1
    25   11   46 1
    26   12   16 1
    27   12   13 1
    28   13   14 2
    29   13   47 1
    30   14   15 1
    31   14   48 1
    32   15   16 2
    33   15   49 1
    34   16   17 1
    35   17   18 2
    36   17   50 1
    37   18   25 1
    38   18   19 1
    39   19   20 1
    40   19   21 2
    41   21   22 1
    42   22   23 2
    43   22   24 am
    44   24   25 am
    45   24   27 1
    46   25   26 2
    47   27   32 ar
    48   27   28 ar
    49   28   29 ar
    50   28   51 1
    51   29   30 ar
    52   29   52 1
    53   30   31 ar
    54   30   33 1
    55   31   32 ar
    56   31   53 1
    57   32   54 1
@<TRIPOS>MOLECULE
ZINC13057529
   51    54     0     0     0
SMALL
USER_CHARGES
6-methyl-4-oxo-3-[2-oxo-2-[4-[3-(trifluoromethyl)phenyl]piperazin-1-yl]ethyl]furo[5,4-d]pyrimidine-5-carboxylic acid
@<TRIPOS>ATOM
      1 C1          2.2726   16.1562   -4.7281 C.3       1 <0>        -0.0596
      2 C2          1.8666   14.7295   -4.4625 C.2       1 <0>        -0.0070
      3 C3          1.0938   14.3138   -3.4204 C.2       1 <0>        -0.1026
      4 C4          0.9705   12.8551   -3.5780 C.2       1 <0>        -0.2522
      5 C5          1.6979   12.5350   -4.7245 C.2       1 <0>         0.2467
      6 O1          2.2106   13.6760   -5.2144 O.3       1 <0>        -0.1559
      7 N1          1.7609   11.2528   -5.1155 N.2       1 <0>        -0.4974
      8 C6          1.1587   10.3092   -4.4476 C.2       1 <0>         0.3851
      9 N2          0.4380   10.5591   -3.3266 N.am      1 <0>        -0.5265
     10 C7          0.3188   11.8257   -2.8657 C.2       1 <0>         0.5656
     11 O2         -0.3290   12.0699   -1.8622 O.2       1 <0>        -0.4963
     12 C8         -0.2174    9.4575   -2.6172 C.3       1 <0>         0.0785
     13 C9          0.7238    8.8954   -1.5832 C.2       1 <0>         0.5047
     14 O3          1.8329    9.3684   -1.4518 O.2       1 <0>        -0.5132
     15 N3          0.3332    7.8671   -0.8045 N.am      1 <0>        -0.6155
     16 C10         1.2360    7.3035    0.2107 C.3       1 <0>         0.1160
     17 C11         1.2951    5.7842    0.0199 C.3       1 <0>         0.0372
     18 N4         -0.0690    5.2391    0.0304 N.pl3     1 <0>        -0.4868
     19 C12        -0.8600    5.7607   -1.0923 C.3       1 <0>         0.0416
     20 C13        -1.0074    7.2791   -0.9470 C.3       1 <0>         0.1066
     21 C14        -0.0501    3.8425    0.0232 C.ar      1 <0>         0.1153
     22 C15         1.1615    3.1627    0.0080 C.ar      1 <0>        -0.1401
     23 C16         1.1766    1.7820    0.0004 C.ar      1 <0>        -0.0905
     24 C17        -0.0126    1.0758    0.0080 C.ar      1 <0>        -0.1012
     25 C18        -1.2201    1.7492    0.0174 C.ar      1 <0>        -0.1562
     26 C19        -1.2424    3.1302    0.0307 C.ar      1 <0>        -0.0920
     27 C20        -2.5133    0.9755    0.0188 C.3       1 <0>         0.5086
     28 F1         -2.2364   -0.3958    0.0096 F         1 <0>        -0.1768
     29 F2         -3.2469    1.2954    1.1663 F         1 <0>        -0.1750
     30 F3         -3.2573    1.3086   -1.1182 F         1 <0>        -0.1760
     31 C21         0.5055   15.1471   -2.3610 C.2       1 <0>         0.5259
     32 O4          1.1258   15.3552   -1.3365 O.co2     1 <0>        -0.6190
     33 H1          3.2137   16.3668   -4.2201 H         1 <0>         0.0816
     34 H2          2.3976   16.3047   -5.8007 H         1 <0>         0.0752
     35 H3          1.5002   16.8292   -4.3557 H         1 <0>         0.0975
     36 H4          1.2370    9.2912   -4.7997 H         1 <0>         0.2111
     37 H5         -0.4850    8.6758   -3.3281 H         1 <0>         0.1260
     38 H6         -1.1181    9.8263   -2.1264 H         1 <0>         0.1332
     39 H7          0.8562    7.5330    1.2063 H         1 <0>         0.0807
     40 H8          2.2337    7.7264    0.0929 H         1 <0>         0.1038
     41 H9          1.8713    5.3379    0.8304 H         1 <0>         0.0985
     42 H10         1.7707    5.5556   -0.9339 H         1 <0>         0.0561
     43 H11        -0.3543    5.5324   -2.0305 H         1 <0>         0.0559
     44 H12        -1.8466    5.2974   -1.0883 H         1 <0>         0.0985
     45 H13        -1.6028    7.5062   -0.0627 H         1 <0>         0.0877
     46 H14        -1.4948    7.6888   -1.8317 H         1 <0>         0.0970
     47 H15         2.0904    3.7136    0.0017 H         1 <0>         0.1377
     48 H16         2.1181    1.2530   -0.0118 H         1 <0>         0.1363
     49 H17         0.0021   -0.0041    0.0020 H         1 <0>         0.1376
     50 H18        -2.1859    3.6556    0.0425 H         1 <0>         0.1376
     51 O5         -0.7215   15.6803   -2.5261 O.co2     1 <0>        -0.7443
@<TRIPOS>BOND
     1    1    2 1
     2    1   33 1
     3    1   34 1
     4    1   35 1
     5    2    6 1
     6    2    3 2
     7    3    4 1
     8    3   31 1
     9    4   10 1
    10    4    5 2
    11    5    6 1
    12    5    7 1
    13    7    8 2
    14    8    9 1
    15    8   36 1
    16    9   10 am
    17    9   12 1
    18   10   11 2
    19   12   13 1
    20   12   37 1
    21   12   38 1
    22   13   14 2
    23   13   15 am
    24   15   20 1
    25   15   16 1
    26   16   17 1
    27   16   39 1
    28   16   40 1
    29   17   18 1
    30   17   41 1
    31   17   42 1
    32   18   19 1
    33   18   21 1
    34   19   20 1
    35   19   43 1
    36   19   44 1
    37   20   45 1
    38   20   46 1
    39   21   26 ar
    40   21   22 ar
    41   22   23 ar
    42   22   47 1
    43   23   24 ar
    44   23   48 1
    45   24   25 ar
    46   24   49 1
    47   25   26 ar
    48   25   27 1
    49   26   50 1
    50   27   28 1
    51   27   29 1
    52   27   30 1
    53   31   32 2
    54   31   51 1
@<TRIPOS>MOLECULE
ZINC16920245
   43    45     0     0     0
SMALL
USER_CHARGES
2-[[2-[(5Z)-5-[(2-fluorophenyl)methylene]-2,4-dioxo-thiazolidin-3-yl]acetyl]-methyl-amino]benzoic acid
@<TRIPOS>ATOM
      1 C1         -0.2370   -0.1724    0.9715 C.3       1 <0>         0.0822
      2 N1         -0.3565   -1.5938    0.6374 N.am      1 <0>        -0.5407
      3 C2         -0.5272   -2.5350    1.6494 C.ar      1 <0>         0.1603
      4 C3         -1.8038   -2.8857    2.0680 C.ar      1 <0>        -0.1262
      5 C4         -1.9708   -3.8187    3.0712 C.ar      1 <0>        -0.1199
      6 C5         -0.8698   -4.4121    3.6679 C.ar      1 <0>        -0.1327
      7 C6          0.4046   -4.0769    3.2659 C.ar      1 <0>        -0.0755
      8 C7          0.5898   -3.1381    2.2473 C.ar      1 <0>        -0.1050
      9 C8          1.9501   -2.7796    1.8078 C.2       1 <0>         0.4910
     10 O1          2.1070   -1.9595    0.9250 O.co2     1 <0>        -0.6188
     11 C9         -0.3012   -1.9905   -0.6495 C.2       1 <0>         0.5276
     12 O2         -0.4001   -3.1671   -0.9261 O.2       1 <0>        -0.5324
     13 C10        -0.1164   -0.9719   -1.7447 C.3       1 <0>         0.0797
     14 N2         -0.0888   -1.6503   -3.0429 N.am      1 <0>        -0.5590
     15 C11        -1.2214   -1.8332   -3.7005 C.2       1 <0>         0.5643
     16 O3         -2.2881   -1.4527   -3.2550 O.2       1 <0>        -0.4696
     17 C12        -1.1260   -2.5234   -5.0032 C.2       1 <0>        -0.1864
     18 C13        -2.1050   -2.8442   -5.8856 C.2       1 <0>         0.0526
     19 C14        -1.7962   -3.6801   -7.0536 C.ar      1 <0>        -0.1168
     20 C15        -0.6303   -4.4542   -7.0767 C.ar      1 <0>        -0.0669
     21 C16        -0.3504   -5.2397   -8.1739 C.ar      1 <0>        -0.1250
     22 C17        -1.2127   -5.2572   -9.2575 C.ar      1 <0>        -0.0708
     23 C18        -2.3648   -4.4923   -9.2475 C.ar      1 <0>        -0.1575
     24 C19        -2.6643   -3.7027   -8.1537 C.ar      1 <0>         0.1312
     25 F1         -3.7895   -2.9549   -8.1449 F         1 <0>        -0.1293
     26 S1          0.6345   -2.8190   -5.0971 S.3       1 <0>        -0.0519
     27 C20         1.0917   -2.0691   -3.5425 C.2       1 <0>         0.5444
     28 O4          2.1997   -1.9631   -3.0520 O.2       1 <0>        -0.3872
     29 H1          0.8123    0.0765    1.1302 H         1 <0>         0.0761
     30 H2         -0.6330    0.4279    0.1525 H         1 <0>         0.0658
     31 H3         -0.8012    0.0358    1.8806 H         1 <0>         0.0689
     32 H4         -2.6671   -2.4276    1.6083 H         1 <0>         0.1170
     33 H5         -2.9659   -4.0884    3.3931 H         1 <0>         0.1189
     34 H6         -1.0115   -5.1414    4.4519 H         1 <0>         0.1193
     35 H7          1.2593   -4.5423    3.7342 H         1 <0>         0.1336
     36 H8         -0.9428   -0.2616   -1.7234 H         1 <0>         0.1270
     37 H9          0.8232   -0.4409   -1.5922 H         1 <0>         0.1343
     38 H10        -3.1116   -2.4852   -5.7295 H         1 <0>         0.1646
     39 H11         0.0463   -4.4392   -6.2350 H         1 <0>         0.1485
     40 H12         0.5469   -5.8404   -8.1906 H         1 <0>         0.1389
     41 H13        -0.9838   -5.8717  -10.1156 H         1 <0>         0.1383
     42 H14        -3.0318   -4.5118  -10.0967 H         1 <0>         0.1418
     43 O5          3.0199   -3.3613    2.3848 O.co2     1 <0>        -0.7545
@<TRIPOS>BOND
     1    1    2 1
     2    1   29 1
     3    1   30 1
     4    1   31 1
     5    2    3 1
     6    2   11 am
     7    3    8 ar
     8    3    4 ar
     9    4    5 ar
    10    4   32 1
    11    5    6 ar
    12    5   33 1
    13    6    7 ar
    14    6   34 1
    15    7    8 ar
    16    7   35 1
    17    8    9 1
    18    9   10 2
    19    9   43 1
    20   11   12 2
    21   11   13 1
    22   13   14 1
    23   13   36 1
    24   13   37 1
    25   14   27 am
    26   14   15 am
    27   15   16 2
    28   15   17 1
    29   17   18 2
    30   17   26 1
    31   18   19 1
    32   18   38 1
    33   19   24 ar
    34   19   20 ar
    35   20   21 ar
    36   20   39 1
    37   21   22 ar
    38   21   40 1
    39   22   23 ar
    40   22   41 1
    41   23   24 ar
    42   23   42 1
    43   24   25 1
    44   26   27 1
    45   27   28 2
@<TRIPOS>MOLECULE
ZINC39680315
   45    48     0     0     0
SMALL
USER_CHARGES

@<TRIPOS>ATOM
      1 C1         -0.0171    1.5550   -0.0212 C.3       1 <0>        -0.1780
      2 C2          0.0046    0.0252   -0.0083 C.3       1 <0>         0.0900
      3 N1          0.6889   -0.4636   -1.2078 N.pl3     1 <0>        -0.4534
      4 C3          0.1120   -0.8397   -2.3989 C.2       1 <0>         0.2135
      5 N2          1.0851   -1.2097   -3.1985 N.2       1 <0>        -0.2668
      6 N3          2.2150   -1.0924   -2.5978 N.2       1 <0>        -0.2953
      7 C4          2.0328   -0.6353   -1.3789 C.2       1 <0>         0.1481
      8 S1          3.2884   -0.3088   -0.1865 S.3       1 <0>         0.0915
      9 C5          4.8286   -0.7427   -1.0410 C.3       1 <0>        -0.0564
     10 C6          5.9977   -0.5067   -0.1198 C.2       1 <0>         0.4622
     11 N4          5.7559   -0.0576    1.0882 N.2       1 <0>        -0.6218
     12 C7          6.7241    0.1832    1.9784 C.2       1 <0>         0.5660
     13 O1          6.4638    0.6005    3.0941 O.2       1 <0>        -0.4707
     14 C8          8.1388   -0.0769    1.5607 C.2       1 <0>        -0.3454
     15 C9          9.2609    0.0889    2.2767 C.2       1 <0>         0.1275
     16 C10        10.5757   -0.2518    1.6128 C.3       1 <0>        -0.1478
     17 H1         11.0822   -1.0594    2.1414 H         1 <0>         0.1596
     18 S2         10.0215   -0.8006   -0.0523 S.3       1 <0>         0.0479
     19 C11         8.2752   -0.5803    0.1772 C.2       1 <0>         0.2906
     20 N5          7.2143   -0.7689   -0.5710 N.2       1 <0>        -0.5574
     21 C12        11.4613    0.9636    1.5143 C.2       1 <0>         0.5289
     22 O2         12.6417    0.8832    1.8088 O.co2     1 <0>        -0.6485
     23 O3         10.9974    2.0272    1.1401 O.co2     1 <0>        -0.6477
     24 C13         9.2126    0.5979    3.6943 C.3       1 <0>        -0.1515
     25 C14        -1.3315   -0.8292   -2.7181 C.ar      1 <0>        -0.0101
     26 C15        -2.2108   -0.0523   -1.9621 C.ar      1 <0>        -0.1210
     27 C16        -3.5567   -0.0470   -2.2652 C.ar      1 <0>        -0.1164
     28 C17        -4.0355   -0.8099   -3.3155 C.ar      1 <0>        -0.1091
     29 C18        -3.1692   -1.5822   -4.0687 C.ar      1 <0>        -0.1165
     30 C19        -1.8201   -1.5917   -3.7802 C.ar      1 <0>        -0.0766
     31 H2          1.0053    1.9327   -0.0356 H         1 <0>         0.0762
     32 H3         -0.5457    1.9034   -0.9084 H         1 <0>         0.0660
     33 H4         -0.5263    1.9187    0.8714 H         1 <0>         0.0862
     34 H5          0.5332   -0.3232    0.8790 H         1 <0>         0.1043
     35 H6         -1.0178   -0.3525    0.0062 H         1 <0>         0.1055
     36 H7          4.8001   -1.7932   -1.3302 H         1 <0>         0.1331
     37 H8          4.9369   -0.1235   -1.9315 H         1 <0>         0.1336
     38 H9          8.1767    0.7815    3.9794 H         1 <0>         0.1112
     39 H10         9.6470   -0.1458    4.3624 H         1 <0>         0.0919
     40 H11         9.7793    1.5262    3.7665 H         1 <0>         0.1022
     41 H12        -1.8385    0.5431   -1.1416 H         1 <0>         0.1332
     42 H13        -4.2382    0.5537   -1.6811 H         1 <0>         0.1285
     43 H14        -5.0901   -0.8028   -3.5481 H         1 <0>         0.1263
     44 H15        -3.5493   -2.1757   -4.8870 H         1 <0>         0.1303
     45 H16        -1.1443   -2.1914   -4.3717 H         1 <0>         0.1364
@<TRIPOS>BOND
     1    1    2 1
     2    1   31 1
     3    1   32 1
     4    1   33 1
     5    2    3 1
     6    2   34 1
     7    2   35 1
     8    3    7 1
     9    3    4 1
    10    4    5 2
    11    4   25 1
    12    5    6 1
    13    6    7 2
    14    7    8 1
    15    8    9 1
    16    9   10 1
    17    9   36 1
    18    9   37 1
    19   10   20 1
    20   10   11 2
    21   11   12 1
    22   12   13 2
    23   12   14 1
    24   14   19 1
    25   14   15 2
    26   15   16 1
    27   15   24 1
    28   16   17 1
    29   16   18 1
    30   16   21 1
    31   18   19 1
    32   19   20 2
    33   21   22 2
    34   21   23 1
    35   24   38 1
    36   24   39 1
    37   24   40 1
    38   25   30 ar
    39   25   26 ar
    40   26   27 ar
    41   26   41 1
    42   27   28 ar
    43   27   42 1
    44   28   29 ar
    45   28   43 1
    46   29   30 ar
    47   29   44 1
    48   30   45 1
@<TRIPOS>MOLECULE
ZINC15223104
   39    42     0     0     0
SMALL
USER_CHARGES

@<TRIPOS>ATOM
      1 C1         -0.0169    1.3925    0.0097 C.ar      1 <0>         0.0403
      2 C2          1.1691    2.0965    0.0022 C.ar      1 <0>        -0.1810
      3 C3          2.3795    1.4250   -0.0135 C.ar      1 <0>         0.0251
      4 C4          2.4122    0.0425   -0.0212 C.ar      1 <0>        -0.2073
      5 C5          1.2297   -0.6804   -0.0133 C.ar      1 <0>         0.3294
      6 C6          0.0021   -0.0041    0.0020 C.ar      1 <0>        -0.1985
      7 C7         -1.2614   -0.7622    0.0105 C.2       1 <0>         0.1472
      8 N1         -1.2397   -2.0600    0.0033 N.2       1 <0>        -0.2126
      9 N2         -2.4410   -2.7808    0.0114 N.am      1 <0>        -0.4674
     10 C8         -3.6768   -2.1905    0.0209 C.2       1 <0>         0.5110
     11 O1         -3.9314   -1.0238   -0.1888 O.2       1 <0>        -0.4710
     12 C9         -4.6485   -3.2828    0.3428 C.3       1 <0>        -0.1211
     13 H1         -4.6807   -3.4443    1.4203 H         1 <0>         0.1240
     14 C10        -6.0542   -3.2945   -0.2213 C.3       1 <0>        -0.0436
     15 H2         -6.5521   -2.3275   -0.1500 H         1 <0>         0.1105
     16 C11        -6.7534   -4.4323    0.6110 C.3       1 <0>        -0.1154
     17 C12        -5.7945   -5.6289    0.6570 C.3       1 <0>        -0.1166
     18 C13        -4.7987   -5.5826   -0.5111 C.3       1 <0>        -0.0111
     19 H3         -4.2828   -6.5321   -0.6542 H         1 <0>         0.1063
     20 C14        -3.8756   -4.4427   -0.3427 C.3       1 <0>        -0.1662
     21 H4         -3.9375   -3.9708   -1.3233 H         1 <0>         0.1018
     22 C15        -2.5021   -4.1581    0.0046 C.2       1 <0>         0.5941
     23 O2         -1.6119   -4.9474    0.2380 O.2       1 <0>        -0.4338
     24 C16        -5.5784   -5.1350   -1.7615 C.2       1 <0>        -0.1616
     25 C17        -6.1221   -3.9072   -1.6229 C.2       1 <0>        -0.1622
     26 O3          1.2603   -2.0381   -0.0209 O.3       1 <0>        -0.5821
     27 Br1         4.0723   -0.8627   -0.0432 Br        1 <0>        -0.0571
     28 N3          1.1475    3.5765    0.0103 N.pl3     1 <0>         0.0723
     29 O4          0.0919    4.1656    0.0236 O.2       1 <0>        -0.2116
     30 O5          2.1856    4.1962    0.0037 O.3       1 <0>        -0.2118
     31 H5         -0.9589    1.9204    0.0260 H         1 <0>         0.1374
     32 H6          3.3035    1.9840   -0.0200 H         1 <0>         0.1367
     33 H7         -2.2056   -0.2380    0.0227 H         1 <0>         0.1414
     34 H8         -6.9542   -4.0803    1.6228 H         1 <0>         0.0721
     35 H9         -7.6860   -4.7241    0.1281 H         1 <0>         0.0739
     36 H10        -5.2439   -5.6103    1.5975 H         1 <0>         0.0716
     37 H11        -6.3712   -6.5520    0.5992 H         1 <0>         0.0750
     38 H12        -5.6694   -5.7297   -2.6584 H         1 <0>         0.1359
     39 H13        -6.6035   -3.3893   -2.4392 H         1 <0>         0.1260
@<TRIPOS>BOND
     1    1    6 ar
     2    1    2 ar
     3    1   31 1
     4    2    3 ar
     5    2   28 1
     6    3    4 ar
     7    3   32 1
     8    4    5 ar
     9    4   27 1
    10    5    6 ar
    11    5   26 1
    12    6    7 1
    13    7    8 2
    14    7   33 1
    15    8    9 1
    16    9   22 am
    17    9   10 am
    18   10   11 2
    19   10   12 1
    20   12   13 1
    21   12   20 1
    22   12   14 1
    23   14   15 1
    24   14   25 1
    25   14   16 1
    26   16   17 1
    27   16   34 1
    28   16   35 1
    29   17   18 1
    30   17   36 1
    31   17   37 1
    32   18   19 1
    33   18   20 1
    34   18   24 1
    35   20   21 1
    36   20   22 1
    37   22   23 2
    38   24   25 2
    39   24   38 1
    40   25   39 1
    41   28   29 2
    42   28   30 1
@<TRIPOS>MOLECULE
ZINC17529574
   47    50     0     0     0
SMALL
USER_CHARGES

@<TRIPOS>ATOM
      1 C1         -0.0128    1.5235    0.0165 C.3       1 <0>        -0.1506
      2 C2         -0.0078   -0.0063   -0.0019 C.3       1 <0>         0.0687
      3 O1          0.6692   -0.4664   -1.1732 O.3       1 <0>        -0.3387
      4 C3          0.7622   -1.8025   -1.3423 C.2       1 <0>         0.4757
      5 C4          1.3938   -2.3071   -2.4356 C.2       1 <0>        -0.4116
      6 C5          1.8993   -1.4165   -3.5613 C.3       1 <0>         0.1521
      7 H1          2.6034   -0.6996   -3.1389 H         1 <0>         0.0596
      8 C6          2.5768   -2.1257   -4.7003 C.2       1 <0>        -0.7802
      9 C7          2.7178   -3.4633   -4.7065 C.2       1 <0>         0.2627
     10 C8          3.4082   -4.0468   -5.8941 C.ar      1 <0>        -0.0099
     11 C9          3.6778   -5.4064   -6.1392 C.ar      1 <0>        -0.0786
     12 C10         4.3268   -5.7941   -7.2880 C.ar      1 <0>        -0.0851
     13 C11         4.7297   -4.8626   -8.2282 C.ar      1 <0>        -0.1262
     14 C12         4.4729   -3.5182   -8.0043 C.ar      1 <0>        -0.0037
     15 C13         3.8274   -3.1340   -6.8616 C.ar      1 <0>        -0.6195
     16 S1          3.3190   -1.5643   -6.2082 S.o2      1 <0>         2.5611
     17 O2          2.2854   -1.0582   -7.0418 O.2       1 <0>        -0.9383
     18 O3          4.4890   -0.8311   -5.8726 O.2       1 <0>        -0.9439
     19 N1          2.2231   -4.1745   -3.6369 N.2       1 <0>        -0.6343
     20 C14         1.6271   -3.6863   -2.5957 C.2       1 <0>         0.3374
     21 C15         1.1597   -4.6307   -1.5183 C.3       1 <0>        -0.0902
     22 C16         0.7275   -0.6499   -4.1184 C.ar      1 <0>        -0.0028
     23 C17        -0.3496   -1.3289   -4.6566 C.ar      1 <0>        -0.0916
     24 C18        -1.4245   -0.6258   -5.1676 C.ar      1 <0>        -0.0556
     25 C19        -1.4225    0.7563   -5.1400 C.ar      1 <0>        -0.0649
     26 C20        -0.3458    1.4352   -4.6009 C.ar      1 <0>        -0.0551
     27 C21         0.7272    0.7320   -4.0860 C.ar      1 <0>        -0.1144
     28 N2         -2.5731    1.5091   -5.6881 N.pl3     1 <0>         0.0442
     29 O4         -3.5146    0.9153   -6.1599 O.2       1 <0>        -0.1752
     30 O5         -2.5713    2.7179   -5.6639 O.3       1 <0>        -0.1753
     31 O6          0.2282   -2.6377   -0.4260 O.3       1 <0>        -0.6536
     32 H2          1.0137    1.8902    0.0225 H         1 <0>         0.0624
     33 H3         -0.5264    1.8959   -0.8698 H         1 <0>         0.0607
     34 H4         -0.5292    1.8745    0.9100 H         1 <0>         0.0700
     35 H5          0.5058   -0.3787    0.8845 H         1 <0>         0.0581
     36 H6         -1.0343   -0.3730   -0.0078 H         1 <0>         0.0561
     37 H7          3.3728   -6.1512   -5.4190 H         1 <0>         0.1400
     38 H8          4.5254   -6.8419   -7.4587 H         1 <0>         0.1325
     39 H9          5.2390   -5.1788   -9.1265 H         1 <0>         0.1367
     40 H10         4.7809   -2.7787   -8.7285 H         1 <0>         0.1357
     41 H11         0.0715   -4.6059   -1.4605 H         1 <0>         0.0826
     42 H12         1.4880   -5.6428   -1.7548 H         1 <0>         0.0487
     43 H13         1.5815   -4.3264   -0.5604 H         1 <0>         0.0826
     44 H14        -0.3512   -2.4087   -4.6782 H         1 <0>         0.1374
     45 H15        -2.2657   -1.1563   -5.5888 H         1 <0>         0.1450
     46 H16        -0.3441    2.5150   -4.5797 H         1 <0>         0.1465
     47 H17         1.5667    1.2624   -3.6614 H         1 <0>         0.1430
@<TRIPOS>BOND
     1    1    2 1
     2    1   32 1
     3    1   33 1
     4    1   34 1
     5    2    3 1
     6    2   35 1
     7    2   36 1
     8    3    4 1
     9    4    5 2
    10    4   31 1
    11    5   20 1
    12    5    6 1
    13    6    7 1
    14    6    8 1
    15    6   22 1
    16    8   16 1
    17    8    9 2
    18    9   10 1
    19    9   19 1
    20   10   15 ar
    21   10   11 ar
    22   11   12 ar
    23   11   37 1
    24   12   13 ar
    25   12   38 1
    26   13   14 ar
    27   13   39 1
    28   14   15 ar
    29   14   40 1
    30   15   16 1
    31   16   17 2
    32   16   18 2
    33   19   20 2
    34   20   21 1
    35   21   41 1
    36   21   42 1
    37   21   43 1
    38   22   27 ar
    39   22   23 ar
    40   23   24 ar
    41   23   44 1
    42   24   25 ar
    43   24   45 1
    44   25   26 ar
    45   25   28 1
    46   26   27 ar
    47   26   46 1
    48   27   47 1
    49   28   29 2
    50   28   30 1
@<TRIPOS>MOLECULE
ZINC13280271
   53    56     0     0     0
SMALL
USER_CHARGES
3-isobutyl-4-oxo-2-[2-oxo-2-(3-oxo-4H-1,4-benzoxazin-6-yl)ethyl]sulfanyl-quinazoline-7-carboxylic acid
@<TRIPOS>ATOM
      1 C1         -0.0187    1.5258    0.0104 C.3       1 <0>        -0.1422
      2 C2          0.0021   -0.0041    0.0020 C.3       1 <0>        -0.1117
      3 C3          0.7421   -0.5109    1.2415 C.3       1 <0>        -0.1541
      4 C4          0.7182   -0.4975   -1.2568 C.3       1 <0>         0.0940
      5 N1          0.6341   -1.9585   -1.3255 N.am      1 <0>        -0.5276
      6 C5         -0.4080   -2.5413   -1.9618 C.2       1 <0>         0.5570
      7 O1         -1.2828   -1.8738   -2.4817 O.2       1 <0>        -0.5142
      8 C6         -0.4450   -4.0119   -2.0027 C.ar      1 <0>        -0.1955
      9 C7         -1.4793   -4.7010   -2.6351 C.ar      1 <0>        -0.0633
     10 C8         -1.4777   -6.0662   -2.6504 C.ar      1 <0>        -0.0866
     11 C9         -0.4439   -6.7851   -2.0362 C.ar      1 <0>        -0.0666
     12 C10         0.5964   -6.1192   -1.4005 C.ar      1 <0>        -0.0729
     13 C11         0.6052   -4.7216   -1.3780 C.ar      1 <0>         0.1383
     14 N2          1.5983   -4.0309   -0.7700 N.2       1 <0>        -0.5132
     15 C12         1.6110   -2.7208   -0.7518 C.2       1 <0>         0.3408
     16 S1          2.9472   -1.9049    0.0564 S.3       1 <0>         0.0452
     17 C13         3.9031   -3.3391    0.6091 C.3       1 <0>        -0.1670
     18 C14         5.1303   -2.8705    1.3478 C.2       1 <0>         0.4205
     19 O2          5.3381   -1.6836    1.4869 O.2       1 <0>        -0.4366
     20 C15         6.0745   -3.8510    1.8992 C.ar      1 <0>        -0.1579
     21 C16         5.8333   -5.2216    1.7446 C.ar      1 <0>        -0.0517
     22 C17         6.7212   -6.1410    2.2576 C.ar      1 <0>        -0.1158
     23 C18         7.8523   -5.7120    2.9378 C.ar      1 <0>         0.1147
     24 C19         8.0971   -4.3457    3.1012 C.ar      1 <0>         0.0761
     25 C20         7.2157   -3.4173    2.5861 C.ar      1 <0>        -0.0592
     26 N3          9.2456   -3.9334    3.7931 N.am      1 <0>        -0.6591
     27 C21        10.2371   -4.8261    4.0051 C.2       1 <0>         0.4914
     28 O3         11.2266   -4.5010    4.6268 O.2       1 <0>        -0.5084
     29 C22        10.1084   -6.2281    3.4663 C.3       1 <0>         0.0493
     30 O4          8.7312   -6.6121    3.4495 O.3       1 <0>        -0.2962
     31 C23        -0.4605   -8.2643   -2.0644 C.2       1 <0>         0.4880
     32 O5          0.4332   -8.8918   -1.5331 O.co2     1 <0>        -0.6215
     33 H1          1.0039    1.9031    0.0027 H         1 <0>         0.0593
     34 H2         -0.5459    1.8868   -0.8726 H         1 <0>         0.0579
     35 H3         -0.5289    1.8773    0.9072 H         1 <0>         0.0615
     36 H4         -1.0205   -0.3814    0.0098 H         1 <0>         0.0778
     37 H5          1.7647   -0.1336    1.2338 H         1 <0>         0.0707
     38 H6          0.2319   -0.1594    2.1383 H         1 <0>         0.0590
     39 H7          0.7568   -1.6008    1.2356 H         1 <0>         0.0562
     40 H8          0.2444   -0.0644   -2.1377 H         1 <0>         0.1027
     41 H9          1.7648   -0.1951   -1.2215 H         1 <0>         0.0955
     42 H10        -2.2805   -4.1556   -3.1117 H         1 <0>         0.1334
     43 H11        -2.2804   -6.5968   -3.1410 H         1 <0>         0.1430
     44 H12         1.3913   -6.6766   -0.9275 H         1 <0>         0.1449
     45 H13         3.3414   -3.8996    1.2177 H         1 <0>         0.1231
     46 H14         4.2034   -3.9307   -0.2557 H         1 <0>         0.1379
     47 H15         4.9518   -5.5581    1.2191 H         1 <0>         0.1531
     48 H16         6.5350   -7.1976    2.1336 H         1 <0>         0.1533
     49 H17         7.4049   -2.3615    2.7117 H         1 <0>         0.1465
     50 H18         9.3267   -3.0216    4.1140 H         1 <0>         0.4185
     51 H19        10.6685   -6.9139    4.1019 H         1 <0>         0.1500
     52 H20        10.5078   -6.2654    2.4528 H         1 <0>         0.1051
     53 O6         -1.4668   -8.9148   -2.6794 O.co2     1 <0>        -0.7435
@<TRIPOS>BOND
     1    1    2 1
     2    1   33 1
     3    1   34 1
     4    1   35 1
     5    2    3 1
     6    2    4 1
     7    2   36 1
     8    3   37 1
     9    3   38 1
    10    3   39 1
    11    4    5 1
    12    4   40 1
    13    4   41 1
    14    5   15 1
    15    5    6 am
    16    6    7 2
    17    6    8 1
    18    8   13 ar
    19    8    9 ar
    20    9   10 ar
    21    9   42 1
    22   10   11 ar
    23   10   43 1
    24   11   12 ar
    25   11   31 1
    26   12   13 ar
    27   12   44 1
    28   13   14 1
    29   14   15 2
    30   15   16 1
    31   16   17 1
    32   17   18 1
    33   17   45 1
    34   17   46 1
    35   18   19 2
    36   18   20 1
    37   20   25 ar
    38   20   21 ar
    39   21   22 ar
    40   21   47 1
    41   22   23 ar
    42   22   48 1
    43   23   30 1
    44   23   24 ar
    45   24   25 ar
    46   24   26 1
    47   25   49 1
    48   26   27 am
    49   26   50 1
    50   27   28 2
    51   27   29 1
    52   29   30 1
    53   29   51 1
    54   29   52 1
    55   31   32 2
    56   31   53 1
@<TRIPOS>MOLECULE
ZINC16736084
   57    60     0     0     0
SMALL
USER_CHARGES
2-[(5Z)-5-[[2-(4-ethoxycarbonylpiperazin-1-yl)-7-methyl-4-oxo-pyrido[1,2-a]pyrimidin-3-yl]methylene]-4-oxo-2-thioxo-thiazolidin-3-yl]acetic acid
@<TRIPOS>ATOM
      1 C1         -3.1639    9.3840   -3.8662 C.3       1 <0>        -0.1539
      2 C2         -2.0810    9.9210   -2.9282 C.3       1 <0>         0.0828
      3 O1         -1.4853    8.8183   -2.1951 O.3       1 <0>        -0.3696
      4 C3         -0.5080    9.1229   -1.3206 C.2       1 <0>         0.6546
      5 O2         -0.1623   10.2785   -1.1740 O.2       1 <0>        -0.5715
      6 N1          0.0870    8.1459   -0.6077 N.am      1 <0>        -0.5958
      7 C4          1.1565    8.4567    0.3528 C.3       1 <0>         0.1271
      8 C5          2.3550    7.5485    0.0575 C.3       1 <0>         0.0532
      9 N2          1.9137    6.1474    0.0511 N.pl3     1 <0>        -0.4642
     10 C6          0.9406    5.9001   -1.0212 C.3       1 <0>         0.0447
     11 C7         -0.3158    6.7407   -0.7701 C.3       1 <0>         0.1175
     12 C8          2.9886    5.2916   -0.0507 C.2       1 <0>         0.4309
     13 C9          2.8067    3.8974    0.1074 C.2       1 <0>        -0.3334
     14 C10         3.9397    3.0559    0.0006 C.2       1 <0>         0.5342
     15 O3          3.8303    1.8493    0.1343 O.2       1 <0>        -0.5070
     16 N3          5.1433    3.6119   -0.2566 N.am      1 <0>        -0.4271
     17 C11         6.2393    2.8085   -0.3653 C.2       1 <0>         0.1050
     18 C12         7.4597    3.3329   -0.6172 C.2       1 <0>        -0.1370
     19 C13         7.6116    4.7178   -0.7703 C.2       1 <0>        -0.0179
     20 C14         6.5218    5.5299   -0.6630 C.2       1 <0>        -0.1384
     21 C15         5.2601    4.9664   -0.4006 C.2       1 <0>         0.4209
     22 N4          4.2001    5.7686   -0.2969 N.2       1 <0>        -0.5697
     23 C16         8.6585    2.4272   -0.7331 C.3       1 <0>        -0.1071
     24 C17         1.5259    3.3587    0.3714 C.2       1 <0>         0.1203
     25 C18         0.8131    3.7912    1.4520 C.2       1 <0>        -0.2106
     26 C19        -0.5189    3.4749    1.8441 C.2       1 <0>         0.5440
     27 O4         -1.2018    2.7117    1.1839 O.2       1 <0>        -0.4641
     28 N5         -0.9916    4.0284    2.9472 N.am      1 <0>        -0.4920
     29 C20        -0.2322    4.8712    3.6822 C.2       1 <0>         0.3036
     30 S1         -0.6343    5.6936    5.1289 S.2       1 <0>        -0.3713
     31 S2          1.2976    4.9086    2.7604 S.3       1 <0>         0.0588
     32 C21        -2.3580    3.7245    3.3794 C.3       1 <0>         0.0382
     33 C22        -2.3421    2.5212    4.2865 C.2       1 <0>         0.4673
     34 O5         -1.2967    1.9736    4.5455 O.co2     1 <0>        -0.6239
     35 H1         -2.7193    8.6789   -4.5685 H         1 <0>         0.0661
     36 H2         -3.9328    8.8787   -3.2818 H         1 <0>         0.0684
     37 H3         -3.6111   10.2118   -4.4165 H         1 <0>         0.0818
     38 H4         -2.5257   10.6261   -2.2259 H         1 <0>         0.0710
     39 H5         -1.3121   10.4263   -3.5126 H         1 <0>         0.0693
     40 H6          0.8014    8.2760    1.3674 H         1 <0>         0.0880
     41 H7          1.4537    9.5003    0.2494 H         1 <0>         0.1082
     42 H8          3.1146    7.6870    0.8268 H         1 <0>         0.1079
     43 H9          2.7727    7.8027   -0.9166 H         1 <0>         0.0651
     44 H10         1.3780    6.1773   -1.9804 H         1 <0>         0.0641
     45 H11         0.6744    4.8432   -1.0343 H         1 <0>         0.1033
     46 H12        -0.8125    6.3950    0.1365 H         1 <0>         0.0823
     47 H13        -0.9930    6.6497   -1.6194 H         1 <0>         0.1072
     48 H14         6.1314    1.7402   -0.2491 H         1 <0>         0.1849
     49 H15         8.5855    5.1388   -0.9723 H         1 <0>         0.1557
     50 H16         6.6265    6.5985   -0.7788 H         1 <0>         0.1702
     51 H17         8.7793    2.1153   -1.7705 H         1 <0>         0.0795
     52 H18         9.5509    2.9622   -0.4083 H         1 <0>         0.0785
     53 H19         8.5124    1.5489   -0.1043 H         1 <0>         0.0759
     54 H20         1.1118    2.6051   -0.2822 H         1 <0>         0.1523
     55 H21        -2.7676    4.5796    3.9172 H         1 <0>         0.1147
     56 H22        -2.9766    3.5137    2.5070 H         1 <0>         0.1063
     57 O6         -3.4894    2.0578    4.8068 O.co2     1 <0>        -0.7494
@<TRIPOS>BOND
     1    1    2 1
     2    1   35 1
     3    1   36 1
     4    1   37 1
     5    2    3 1
     6    2   38 1
     7    2   39 1
     8    3    4 1
     9    4    5 2
    10    4    6 am
    11    6   11 1
    12    6    7 1
    13    7    8 1
    14    7   40 1
    15    7   41 1
    16    8    9 1
    17    8   42 1
    18    8   43 1
    19    9   10 1
    20    9   12 1
    21   10   11 1
    22   10   44 1
    23   10   45 1
    24   11   46 1
    25   11   47 1
    26   12   22 1
    27   12   13 2
    28   13   14 1
    29   13   24 1
    30   14   15 2
    31   14   16 am
    32   16   21 1
    33   16   17 1
    34   17   18 2
    35   17   48 1
    36   18   19 1
    37   18   23 1
    38   19   20 2
    39   19   49 1
    40   20   21 1
    41   20   50 1
    42   21   22 2
    43   23   51 1
    44   23   52 1
    45   23   53 1
    46   24   25 2
    47   24   54 1
    48   25   31 1
    49   25   26 1
    50   26   27 2
    51   26   28 am
    52   28   29 1
    53   28   32 1
    54   29   30 2
    55   29   31 1
    56   32   33 1
    57   32   55 1
    58   32   56 1
    59   33   34 2
    60   33   57 1
@<TRIPOS>MOLECULE
ZINC34802472
   53    55     0     0     0
SMALL
USER_CHARGES

@<TRIPOS>ATOM
      1 C1         -0.0187    1.5258    0.0104 C.3       1 <0>        -0.1523
      2 C2          0.0021   -0.0041    0.0020 C.3       1 <0>         0.0607
      3 O1          0.6709   -0.4649   -1.1737 O.3       1 <0>        -0.3370
      4 C3          0.7759   -1.7994   -1.3348 C.2       1 <0>         0.4731
      5 C4          1.4037   -2.3070   -2.4369 C.2       1 <0>        -0.3819
      6 C5          1.5353   -3.8040   -2.6552 C.3       1 <0>         0.1326
      7 H1          0.5342   -4.2349   -2.6728 H         1 <0>         0.0567
      8 C6          2.2561   -4.2272   -3.9219 C.2       1 <0>        -0.2535
      9 C7          2.7174   -3.2438   -4.7442 C.2       1 <0>         0.2539
     10 N1          2.5574   -1.9547   -4.4731 N.2       1 <0>        -0.6539
     11 C8          1.9484   -1.4710   -3.4168 C.2       1 <0>         0.3123
     12 C9          1.8389    0.0229   -3.2517 C.3       1 <0>        -0.5503
     13 S1          2.6273    0.8466   -4.6626 S.o2      1 <0>         2.5239
     14 O2          4.0314    0.6303   -4.6335 O.2       1 <0>        -0.9287
     15 O3          1.8818    0.6070   -5.8484 O.2       1 <0>        -0.9280
     16 C10         2.4312    2.5693   -4.3486 C.ar      1 <0>        -0.6668
     17 C11         1.3093    3.2325   -4.8096 C.ar      1 <0>        -0.0243
     18 C12         1.1555    4.5840   -4.5633 C.ar      1 <0>        -0.1426
     19 C13         2.1232    5.2722   -3.8556 C.ar      1 <0>        -0.0720
     20 C14         3.2446    4.6087   -3.3939 C.ar      1 <0>        -0.1428
     21 C15         3.3964    3.2563   -3.6365 C.ar      1 <0>        -0.0245
     22 C16         3.4371   -3.6348   -6.0093 C.3       1 <0>        -0.1160
     23 C17         2.4449   -5.6104   -4.2411 C.1       1 <0>         0.2930
     24 N2          2.5947   -6.7076   -4.4943 N.1       1 <0>        -0.4842
     25 C18         2.2754   -4.3879   -1.4795 C.ar      1 <0>        -0.0407
     26 C19         3.5552   -3.9559   -1.1845 C.ar      1 <0>        -0.0531
     27 C20         4.2340   -4.4914   -0.1062 C.ar      1 <0>        -0.1256
     28 C21         3.6331   -5.4589    0.6777 C.ar      1 <0>        -0.0748
     29 C22         2.3534   -5.8901    0.3833 C.ar      1 <0>        -0.0529
     30 C23         1.6728   -5.3513   -0.6928 C.ar      1 <0>        -0.0295
     31 N3          1.7103   -6.9263    1.2222 N.pl3     1 <0>         0.0422
     32 O4          2.3044   -7.3953    2.1649 O.2       1 <0>        -0.1785
     33 O5          0.5909   -7.3035    0.9647 O.3       1 <0>        -0.1675
     34 O6          0.2614   -2.6328   -0.4084 O.3       1 <0>        -0.6399
     35 H2          1.0039    1.9031    0.0027 H         1 <0>         0.0620
     36 H3         -0.5459    1.8868   -0.8726 H         1 <0>         0.0626
     37 H4         -0.5289    1.8773    0.9072 H         1 <0>         0.0714
     38 H5          0.5293   -0.3651    0.8851 H         1 <0>         0.0595
     39 H6         -1.0205   -0.3814    0.0098 H         1 <0>         0.0610
     40 H7          0.7876    0.3073   -3.2060 H         1 <0>         0.1531
     41 H8          2.3372    0.3241   -2.3303 H         1 <0>         0.1522
     42 H9          0.5532    2.6949   -5.3625 H         1 <0>         0.1417
     43 H10         0.2793    5.1023   -4.9241 H         1 <0>         0.1305
     44 H11         2.0034    6.3282   -3.6638 H         1 <0>         0.1273
     45 H12         4.0009    5.1465   -2.8413 H         1 <0>         0.1303
     46 H13         4.2708    2.7372   -3.2725 H         1 <0>         0.1414
     47 H14         2.7167   -3.7337   -6.8213 H         1 <0>         0.0767
     48 H15         4.1680   -2.8672   -6.2635 H         1 <0>         0.0790
     49 H16         3.9470   -4.5862   -5.8580 H         1 <0>         0.0641
     50 H17         4.0246   -3.2001   -1.7968 H         1 <0>         0.1359
     51 H18         5.2340   -4.1544    0.1238 H         1 <0>         0.1387
     52 H19         4.1638   -5.8778    1.5198 H         1 <0>         0.1426
     53 H20         0.6714   -5.6856   -0.9206 H         1 <0>         0.1430
@<TRIPOS>BOND
     1    1    2 1
     2    1   35 1
     3    1   36 1
     4    1   37 1
     5    2    3 1
     6    2   38 1
     7    2   39 1
     8    3    4 1
     9    4    5 2
    10    4   34 1
    11    5   11 1
    12    5    6 1
    13    6    7 1
    14    6    8 1
    15    6   25 1
    16    8    9 2
    17    8   23 1
    18    9   10 1
    19    9   22 1
    20   10   11 2
    21   11   12 1
    22   12   13 1
    23   12   40 1
    24   12   41 1
    25   13   14 2
    26   13   15 2
    27   13   16 1
    28   16   21 ar
    29   16   17 ar
    30   17   18 ar
    31   17   42 1
    32   18   19 ar
    33   18   43 1
    34   19   20 ar
    35   19   44 1
    36   20   21 ar
    37   20   45 1
    38   21   46 1
    39   22   47 1
    40   22   48 1
    41   22   49 1
    42   23   24 3
    43   25   30 ar
    44   25   26 ar
    45   26   27 ar
    46   26   50 1
    47   27   28 ar
    48   27   51 1
    49   28   29 ar
    50   28   52 1
    51   29   30 ar
    52   29   31 1
    53   30   53 1
    54   31   32 2
    55   31   33 1
@<TRIPOS>MOLECULE
ZINC39691538
   53    57     0     0     0
SMALL
USER_CHARGES

@<TRIPOS>ATOM
      1 C1         -0.0187    1.5258    0.0104 C.3       1 <0>        -0.1487
      2 C2          0.0021   -0.0041    0.0020 C.3       1 <0>        -0.1431
      3 C3          0.7182   -0.4975   -1.2568 C.3       1 <0>         0.0962
      4 N1          0.7381   -1.9623   -1.2648 N.am      1 <0>        -0.5734
      5 C4          1.7821   -2.6242   -0.6775 C.2       1 <0>         0.5460
      6 O1          2.6738   -2.0618   -0.0786 O.2       1 <0>        -0.4690
      7 C5          1.7151   -4.1188   -0.8467 C.3       1 <0>        -0.0994
      8 H1          0.9571   -4.5269   -0.1782 H         1 <0>         0.1343
      9 C6          1.2546   -4.3002   -2.3283 C.3       1 <0>         0.1002
     10 H2          1.9001   -3.7198   -2.9875 H         1 <0>         0.1010
     11 N2         -0.0817   -3.8375   -2.4382 N.2       1 <0>        -0.5181
     12 C7         -0.3046   -2.6552   -1.8627 C.2       1 <0>         0.3439
     13 S1         -1.9272   -1.9685   -1.8628 S.3       1 <0>         0.1164
     14 C8         -2.9267   -3.2043   -2.7372 C.3       1 <0>        -0.0780
     15 C9         -4.3568   -2.7345   -2.8087 C.2       1 <0>         0.3832
     16 N3         -5.2770   -3.5190   -3.4211 N.am      1 <0>        -0.6321
     17 H3         -5.0001   -4.3670   -3.8022 H         1 <0>         0.4170
     18 C10        -6.5684   -3.1457   -3.5111 C.2       1 <0>         0.5603
     19 O2         -7.3879   -3.8582   -4.0628 O.2       1 <0>        -0.5117
     20 C11        -6.9660   -1.8461   -2.9213 C.2       1 <0>        -0.2130
     21 C12        -8.2242   -1.2451   -2.8848 C.2       1 <0>        -0.0610
     22 C13        -8.3736   -0.0184   -2.2777 C.2       1 <0>        -0.1602
     23 S2         -6.7179    0.3488   -1.7216 S.3       1 <0>         0.1931
     24 C14        -5.9159   -1.1208   -2.3116 C.2       1 <0>         0.0391
     25 N4         -4.6739   -1.5865   -2.2744 N.2       1 <0>        -0.4620
     26 C15        -9.5501    0.7600   -2.1315 C.2       1 <0>         0.5518
     27 O3        -10.6144    0.3515   -2.5798 O.co2     1 <0>        -0.6547
     28 O4         -9.5019    1.8408   -1.5569 O.co2     1 <0>        -0.6759
     29 C16        -9.4120   -1.9336   -3.5061 C.3       1 <0>        -0.1032
     30 S3          1.6679   -6.0608   -2.4624 S.3       1 <0>        -0.0824
     31 C17         3.1186   -5.9928   -1.4077 C.2       1 <0>        -0.1188
     32 C18         3.0007   -4.8897   -0.6809 C.2       1 <0>        -0.1488
     33 C19         4.2713   -4.7494    0.1571 C.3       1 <0>        -0.0583
     34 C20         4.9104   -6.1522    0.1705 C.3       1 <0>        -0.1192
     35 C21         4.3846   -6.7462   -1.1070 C.3       1 <0>        -0.0475
     36 H4          1.0039    1.9031    0.0027 H         1 <0>         0.0552
     37 H5         -0.5459    1.8868   -0.8726 H         1 <0>         0.0622
     38 H6         -0.5289    1.8773    0.9072 H         1 <0>         0.0633
     39 H7          0.5293   -0.3651    0.8851 H         1 <0>         0.0679
     40 H8         -1.0205   -0.3814    0.0098 H         1 <0>         0.0775
     41 H9          0.1910   -0.1364   -2.1398 H         1 <0>         0.0972
     42 H10         1.7408   -0.1202   -1.2645 H         1 <0>         0.0953
     43 H11        -2.5374   -3.3384   -3.7465 H         1 <0>         0.1335
     44 H12        -2.8821   -4.1526   -2.2017 H         1 <0>         0.1329
     45 H13        -9.8955   -2.5664   -2.7618 H         1 <0>         0.0618
     46 H14       -10.1203   -1.1855   -3.8622 H         1 <0>         0.0978
     47 H15        -9.0794   -2.5468   -4.3436 H         1 <0>         0.0638
     48 H16         4.9491   -4.0302   -0.3027 H         1 <0>         0.0817
     49 H17         4.0219   -4.4386    1.1717 H         1 <0>         0.0761
     50 H18         5.9985   -6.0865    0.1656 H         1 <0>         0.0859
     51 H19         4.5591   -6.7341    1.0226 H         1 <0>         0.0758
     52 H20         4.1758   -7.8104   -0.9981 H         1 <0>         0.0837
     53 H21         5.1200   -6.5817   -1.8946 H         1 <0>         0.0844
@<TRIPOS>BOND
     1    1    2 1
     2    1   36 1
     3    1   37 1
     4    1   38 1
     5    2    3 1
     6    2   39 1
     7    2   40 1
     8    3    4 1
     9    3   41 1
    10    3   42 1
    11    4   12 1
    12    4    5 am
    13    5    6 2
    14    5    7 1
    15    7    8 1
    16    7   32 1
    17    7    9 1
    18    9   10 1
    19    9   11 1
    20    9   30 1
    21   11   12 2
    22   12   13 1
    23   13   14 1
    24   14   15 1
    25   14   43 1
    26   14   44 1
    27   15   25 2
    28   15   16 1
    29   16   17 1
    30   16   18 am
    31   18   19 2
    32   18   20 1
    33   20   24 2
    34   20   21 1
    35   21   22 2
    36   21   29 1
    37   22   23 1
    38   22   26 1
    39   23   24 1
    40   24   25 1
    41   26   27 2
    42   26   28 1
    43   29   45 1
    44   29   46 1
    45   29   47 1
    46   30   31 1
    47   31   35 1
    48   31   32 2
    49   32   33 1
    50   33   34 1
    51   33   48 1
    52   33   49 1
    53   34   35 1
    54   34   50 1
    55   34   51 1
    56   35   52 1
    57   35   53 1
@<TRIPOS>MOLECULE
ZINC59135300
   53    56     0     0     0
SMALL
USER_CHARGES

@<TRIPOS>ATOM
      1 C1          1.4018    1.4635   -0.5911 C.3       1 <0>        -0.0737
      2 C2          0.9132    0.0472   -0.4291 C.2       1 <0>        -0.0113
      3 C3          0.8437   -0.8675   -1.4093 C.2       1 <0>        -0.0533
      4 C4          0.3138   -2.0948   -0.7952 C.2       1 <0>        -0.1527
      5 C5          0.1079   -1.7893    0.5442 C.2       1 <0>         0.0709
      6 N1          0.4762   -0.5106    0.7413 N.pl3     1 <0>        -0.3948
      7 C6          0.4173    0.1578    1.9726 C.ar      1 <0>         0.0949
      8 C7         -0.7330    0.8415    2.3386 C.ar      1 <0>        -0.0026
      9 C8         -0.7887    1.4994    3.5524 C.ar      1 <0>        -0.0834
     10 C9          0.3001    1.4785    4.4049 C.ar      1 <0>        -0.0042
     11 C10         1.4498    0.7999    4.0471 C.ar      1 <0>        -0.2070
     12 C11         1.5116    0.1322    2.8342 C.ar      1 <0>         0.1941
     13 O1          2.6394   -0.5408    2.4835 O.3       1 <0>        -0.2846
     14 C12         3.7217   -0.5238    3.4164 C.3       1 <0>         0.0178
     15 N2         -2.0165    2.2288    3.9410 N.pl3     1 <0>         0.0401
     16 O2         -2.9691    2.2484    3.1968 O.2       1 <0>        -0.1529
     17 O3         -2.0669    2.8049    5.0027 O.3       1 <0>        -0.1622
     18 C13        -0.4290   -2.7278    1.5939 C.3       1 <0>        -0.0862
     19 C14         0.0654   -3.3296   -1.4356 C.2       1 <0>         0.1031
     20 C15        -0.6414   -3.3622   -2.6316 C.2       1 <0>        -0.2618
     21 C16        -1.3186   -2.1680   -3.1560 C.2       1 <0>         0.4954
     22 O4         -1.2722   -0.9977   -2.4851 O.3       1 <0>        -0.6095
     23 N3         -1.9742   -2.2661   -4.3007 N.2       1 <0>        -0.6655
     24 C17        -2.0363   -3.4062   -4.9833 C.2       1 <0>         0.6661
     25 O5         -2.6597   -3.4175   -6.0301 O.2       1 <0>        -0.5696
     26 N4         -1.4498   -4.5436   -4.5824 N.am      1 <0>        -0.5491
     27 C18        -0.7405   -4.5950   -3.4345 C.2       1 <0>         0.5662
     28 O6         -0.2039   -5.6258   -3.0727 O.2       1 <0>        -0.5248
     29 C19        -1.5706   -5.6968   -5.3706 C.ar      1 <0>         0.1459
     30 C20        -2.2717   -6.7954   -4.8921 C.ar      1 <0>        -0.0771
     31 C21        -2.3896   -7.9305   -5.6700 C.ar      1 <0>        -0.1453
     32 C22        -1.8091   -7.9732   -6.9265 C.ar      1 <0>         0.0885
     33 C23        -1.1094   -6.8784   -7.4055 C.ar      1 <0>        -0.1449
     34 C24        -0.9942   -5.7394   -6.6328 C.ar      1 <0>        -0.0682
     35 F1         -1.9251   -9.0846   -7.6858 F         1 <0>        -0.1441
     36 H1          2.4775    1.4987   -0.4184 H         1 <0>         0.0608
     37 H2          1.1846    1.8095   -1.6016 H         1 <0>         0.0817
     38 H3          0.8969    2.1067    0.1297 H         1 <0>         0.0511
     39 H4          1.1214   -0.7296   -2.4438 H         1 <0>         0.1399
     40 H5         -1.5847    0.8599    1.6748 H         1 <0>         0.1690
     41 H6          0.2520    1.9942    5.3526 H         1 <0>         0.1613
     42 H7          2.2985    0.7861    4.7148 H         1 <0>         0.1592
     43 H8          4.0365    0.5054    3.5890 H         1 <0>         0.0638
     44 H9          3.3969   -0.9671    4.3578 H         1 <0>         0.0638
     45 H10         4.5572   -1.0967    3.0142 H         1 <0>         0.1113
     46 H11         0.3986   -3.2590    2.0640 H         1 <0>         0.0736
     47 H12        -0.9702   -2.1573    2.3488 H         1 <0>         0.0595
     48 H13        -1.1040   -3.4459    1.1282 H         1 <0>         0.0844
     49 H14         0.4249   -4.2480   -0.9956 H         1 <0>         0.1285
     50 H15        -2.7243   -6.7625   -3.9121 H         1 <0>         0.1308
     51 H16        -2.9346   -8.7854   -5.2980 H         1 <0>         0.1366
     52 H17        -0.6570   -6.9137   -8.3855 H         1 <0>         0.1373
     53 H18        -0.4525   -4.8840   -7.0086 H         1 <0>         0.1336
@<TRIPOS>BOND
     1    1    2 1
     2    1   36 1
     3    1   37 1
     4    1   38 1
     5    2    6 1
     6    2    3 2
     7    3    4 1
     8    3   39 1
     9    4    5 2
    10    4   19 1
    11    5    6 1
    12    5   18 1
    13    6    7 1
    14    7   12 ar
    15    7    8 ar
    16    8    9 ar
    17    8   40 1
    18    9   10 ar
    19    9   15 1
    20   10   11 ar
    21   10   41 1
    22   11   12 ar
    23   11   42 1
    24   12   13 1
    25   13   14 1
    26   14   43 1
    27   14   44 1
    28   14   45 1
    29   15   16 2
    30   15   17 1
    31   18   46 1
    32   18   47 1
    33   18   48 1
    34   19   20 2
    35   19   49 1
    36   20   27 1
    37   20   21 1
    38   21   22 1
    39   21   23 2
    40   23   24 1
    41   24   25 2
    42   24   26 am
    43   26   27 am
    44   26   29 1
    45   27   28 2
    46   29   34 ar
    47   29   30 ar
    48   30   31 ar
    49   30   50 1
    50   31   32 ar
    51   31   51 1
    52   32   33 ar
    53   32   35 1
    54   33   34 ar
    55   33   52 1
    56   34   53 1
@<TRIPOS>MOLECULE
ZINC08750796
   56    59     0     0     0
SMALL
USER_CHARGES
2-isobutyl-4,9-dimethyl-7-[1-(4-oxo-3H-quinazolin-2-yl)ethylsulfanyl]-2,4,8,10-tetrazabicyclo[4.4.0]deca-6,8,10-triene-3,5-dione
@<TRIPOS>ATOM
      1 C1          2.9030    4.7424    2.6919 C.3       1 <0>        -0.0926
      2 C2          2.4128    3.4240    3.2328 C.ar      1 <0>         0.4039
      3 N1          1.4122    2.8212    2.6175 N.ar      1 <0>        -0.5499
      4 C3          0.9508    1.6603    3.0608 C.ar      1 <0>         0.4722
      5 C4          1.5474    1.0823    4.1976 C.ar      1 <0>        -0.3064
      6 C5          2.6084    1.7575    4.8195 C.ar      1 <0>         0.2206
      7 N2          3.0017    2.9217    4.2988 N.ar      1 <0>        -0.5503
      8 S1          3.3977    1.0887    6.2458 S.3       1 <0>         0.1638
      9 C6          4.6314    2.3765    6.5552 C.3       1 <0>        -0.0838
     10 H1          5.2295    2.5300    5.6570 H         1 <0>         0.1278
     11 C7          3.9242    3.6816    6.9263 C.3       1 <0>        -0.1431
     12 C8          5.5281    1.9511    7.6892 C.2       1 <0>         0.4106
     13 N3          6.8395    2.3024    7.6404 N.am      1 <0>        -0.6459
     14 H2          7.1721    2.8145    6.8868 H         1 <0>         0.4200
     15 C9          7.6851    1.9488    8.6364 C.2       1 <0>         0.5536
     16 O1          8.8614    2.2606    8.6077 O.2       1 <0>        -0.5051
     17 C10         7.1286    1.1686    9.7516 C.ar      1 <0>        -0.1961
     18 C11         7.9149    0.7502   10.8231 C.ar      1 <0>        -0.0416
     19 C12         7.3417    0.0208   11.8416 C.ar      1 <0>        -0.1333
     20 C13         5.9905   -0.2989   11.8076 C.ar      1 <0>        -0.0716
     21 C14         5.1964    0.1049   10.7581 C.ar      1 <0>        -0.1040
     22 C15         5.7542    0.8453    9.7137 C.ar      1 <0>         0.1522
     23 N4          5.0088    1.2631    8.6602 N.2       1 <0>        -0.5029
     24 C16         1.0324   -0.2014    4.6834 C.2       1 <0>         0.5702
     25 O2          1.5151   -0.7395    5.6618 O.2       1 <0>        -0.4676
     26 N5          0.0051   -0.7699    4.0127 N.am      1 <0>        -0.5575
     27 C17        -0.5339   -0.1766    2.9358 C.2       1 <0>         0.7073
     28 O3         -1.4594   -0.7270    2.3716 O.2       1 <0>        -0.5186
     29 N6         -0.0920    0.9972    2.4508 N.am      1 <0>        -0.5186
     30 C18        -0.7288    1.5792    1.2668 C.3       1 <0>         0.1194
     31 C19        -0.0127    1.0858    0.0080 C.3       1 <0>        -0.1100
     32 C20         1.4227    1.6154   -0.0028 C.3       1 <0>        -0.1389
     33 C21        -0.7527    1.5927   -1.2315 C.3       1 <0>        -0.1425
     34 C22        -0.5330   -2.0524    4.4728 C.3       1 <0>         0.0789
     35 H3          3.6896    4.5644    1.9586 H         1 <0>         0.0971
     36 H4          2.0761    5.2702    2.2168 H         1 <0>         0.0944
     37 H5          3.2978    5.3461    3.5090 H         1 <0>         0.0942
     38 H6          4.6672    4.4571    7.1126 H         1 <0>         0.0691
     39 H7          3.2757    3.9893    6.1060 H         1 <0>         0.0938
     40 H8          3.3261    3.5281    7.8245 H         1 <0>         0.0745
     41 H9          8.9662    0.9956   10.8548 H         1 <0>         0.1395
     42 H10         7.9481   -0.3048   12.6739 H         1 <0>         0.1359
     43 H11         5.5576   -0.8718   12.6143 H         1 <0>         0.1373
     44 H12         4.1470   -0.1497   10.7426 H         1 <0>         0.1431
     45 H13        -0.6662    2.6662    1.3180 H         1 <0>         0.1078
     46 H14        -1.7755    1.2768    1.2315 H         1 <0>         0.1029
     47 H15         0.0021   -0.0041    0.0020 H         1 <0>         0.0738
     48 H16         1.9499    1.2543    0.8802 H         1 <0>         0.0398
     49 H17         1.9329    1.2639   -0.8996 H         1 <0>         0.0538
     50 H18         1.4079    2.7053    0.0031 H         1 <0>         0.0688
     51 H19        -0.2425    1.2411   -2.1283 H         1 <0>         0.0622
     52 H20        -1.7753    1.2154   -1.2238 H         1 <0>         0.0597
     53 H21        -0.7675    2.6825   -1.2255 H         1 <0>         0.0606
     54 H22         0.0171   -2.3820    5.3542 H         1 <0>         0.1058
     55 H23        -1.5868   -1.9348    4.7251 H         1 <0>         0.0831
     56 H24        -0.4295   -2.7947    3.6813 H         1 <0>         0.0825
@<TRIPOS>BOND
     1    1    2 1
     2    1   35 1
     3    1   36 1
     4    1   37 1
     5    2    7 ar
     6    2    3 ar
     7    3    4 ar
     8    4   29 1
     9    4    5 ar
    10    5    6 ar
    11    5   24 1
    12    6    7 ar
    13    6    8 1
    14    8    9 1
    15    9   10 1
    16    9   11 1
    17    9   12 1
    18   11   38 1
    19   11   39 1
    20   11   40 1
    21   12   23 2
    22   12   13 1
    23   13   14 1
    24   13   15 am
    25   15   16 2
    26   15   17 1
    27   17   22 ar
    28   17   18 ar
    29   18   19 ar
    30   18   41 1
    31   19   20 ar
    32   19   42 1
    33   20   21 ar
    34   20   43 1
    35   21   22 ar
    36   21   44 1
    37   22   23 1
    38   24   25 2
    39   24   26 am
    40   26   27 am
    41   26   34 1
    42   27   28 2
    43   27   29 am
    44   29   30 1
    45   30   31 1
    46   30   45 1
    47   30   46 1
    48   31   32 1
    49   31   33 1
    50   31   47 1
    51   32   48 1
    52   32   49 1
    53   32   50 1
    54   33   51 1
    55   33   52 1
    56   33   53 1
    57   34   54 1
    58   34   55 1
    59   34   56 1
@<TRIPOS>MOLECULE
ZINC11478664
   32    33     0     0     0
SMALL
USER_CHARGES
(2,6-dibromo-4-nitro-phenyl)carbamoylmethyl pyrazine-2-carboxylate
@<TRIPOS>ATOM
      1 C1        -10.3773    1.2854   -2.2658 C.ar      1 <0>         0.0901
      2 C2         -9.1113    0.7333   -2.1276 C.ar      1 <0>         0.0523
      3 N1         -8.1019    1.4836   -1.7352 N.ar      1 <0>        -0.3833
      4 C3         -8.2987    2.7708   -1.4612 C.ar      1 <0>         0.0353
      5 C4         -9.5718    3.3223   -1.6011 C.ar      1 <0>         0.1219
      6 N2        -10.5773    2.5639   -1.9999 N.ar      1 <0>        -0.4372
      7 C5         -7.1683    3.6163   -1.0151 C.2       1 <0>         0.5345
      8 O1         -7.3489    4.7919   -0.7704 O.2       1 <0>        -0.4861
      9 O2         -5.9395    3.0815   -0.8807 O.3       1 <0>        -0.3062
     10 C6         -4.8788    3.9695   -0.4394 C.3       1 <0>         0.0508
     11 C7         -3.5859    3.2008   -0.3476 C.2       1 <0>         0.5269
     12 O3         -3.5608    2.0207   -0.6267 O.2       1 <0>        -0.4763
     13 N3         -2.4574    3.8246    0.0447 N.am      1 <0>        -0.6929
     14 C8         -1.2369    3.1390    0.0292 C.ar      1 <0>         0.2451
     15 C9         -0.8117    2.4488    1.1573 C.ar      1 <0>        -0.0861
     16 C10         0.3962    1.7773    1.1402 C.ar      1 <0>        -0.0079
     17 C11         1.1762    1.7832   -0.0015 C.ar      1 <0>        -0.0275
     18 C12         0.7538    2.4651   -1.1278 C.ar      1 <0>        -0.0077
     19 C13        -0.4505    3.1431   -1.1160 C.ar      1 <0>        -0.0879
     20 Br1        -1.0268    4.0759   -2.6567 Br        1 <0>         0.0147
     21 N4          2.4666    1.0582   -0.0179 N.pl3     1 <0>         0.0253
     22 O4          2.8402    0.4574    0.9736 O.2       1 <0>        -0.1387
     23 O5          3.1548    1.0625   -1.0228 O.3       1 <0>        -0.1387
     24 Br2        -1.8812    2.4335    2.7168 Br        1 <0>         0.0156
     25 H1        -11.2012    0.6681   -2.5919 H         1 <0>         0.1843
     26 H2         -8.9526   -0.3124   -2.3460 H         1 <0>         0.1849
     27 H3         -9.7354    4.3676   -1.3841 H         1 <0>         0.1873
     28 H4         -5.1298    4.3765    0.5401 H         1 <0>         0.1139
     29 H5         -4.7668    4.7849   -1.1539 H         1 <0>         0.1146
     30 H6         -2.4908    4.7487    0.3377 H         1 <0>         0.4256
     31 H7          0.7291    1.2437    2.0182 H         1 <0>         0.1767
     32 H8          1.3655    2.4677   -2.0178 H         1 <0>         0.1767
@<TRIPOS>BOND
     1    1    6 ar
     2    1    2 ar
     3    1   25 1
     4    2    3 ar
     5    2   26 1
     6    3    4 ar
     7    4    5 ar
     8    4    7 1
     9    5    6 ar
    10    5   27 1
    11    7    8 2
    12    7    9 1
    13    9   10 1
    14   10   11 1
    15   10   28 1
    16   10   29 1
    17   11   12 2
    18   11   13 am
    19   13   14 1
    20   13   30 1
    21   14   19 ar
    22   14   15 ar
    23   15   16 ar
    24   15   24 1
    25   16   17 ar
    26   16   31 1
    27   17   18 ar
    28   17   21 1
    29   18   19 ar
    30   18   32 1
    31   19   20 1
    32   21   22 2
    33   21   23 1
@<TRIPOS>MOLECULE
ZINC17971216
   60    63     0     0     0
SMALL
USER_CHARGES
8-[(3R,5S)-3,5-dimethyl-1-piperidyl]-3-methyl-7-[(2S)-2-methyl-3-[(5-methyl-1,3,4-thiadiazol-2-yl)sulfanyl]propyl]purine-2,6-dione
@<TRIPOS>ATOM
      1 C1          5.9514    9.8455    4.8817 C.3       1 <0>        -0.0622
      2 C2          5.2374    8.5910    4.4486 C.2       1 <0>         0.0769
      3 N1          4.8918    8.1870    3.2431 N.2       1 <0>        -0.2753
      4 N2          4.2903    7.0959    3.0465 N.2       1 <0>        -0.2830
      5 C3          3.9678    6.2853    4.0465 C.2       1 <0>         0.0238
      6 S1          4.6100    7.2286    5.4264 S.3       1 <0>         0.0093
      7 S2          3.1388    4.7307    4.0236 S.3       1 <0>         0.0763
      8 C4          2.8524    4.5533    2.2452 C.3       1 <0>        -0.1124
      9 C5          2.1228    3.2359    1.9751 C.3       1 <0>        -0.0883
     10 H1          2.6890    2.4115    2.4085 H         1 <0>         0.0908
     11 C6          0.7300    3.2855    2.6063 C.3       1 <0>        -0.1492
     12 C7          1.9912    3.0261    0.4652 C.3       1 <0>         0.1196
     13 N3          1.4005    1.7111    0.2046 N.pl3     1 <0>        -0.3954
     14 C8          2.0746    0.4992    0.1345 C.2       1 <0>        -0.1526
     15 C9          3.4194    0.1118    0.2701 C.2       1 <0>         0.5973
     16 O1          4.2792    0.9433    0.5037 O.2       1 <0>        -0.5117
     17 N4          3.7478   -1.1902    0.1395 N.am      1 <0>        -0.6550
     18 H2          4.7033   -1.4691    0.2355 H         1 <0>         0.4470
     19 C10         2.8100   -2.1183   -0.1177 C.2       1 <0>         0.7110
     20 O2          3.1426   -3.2826   -0.2291 O.2       1 <0>        -0.5333
     21 N5          1.5114   -1.7903   -0.2550 N.am      1 <0>        -0.5100
     22 C11         1.1124   -0.4691   -0.1315 C.2       1 <0>         0.3344
     23 N6         -0.0675    0.1478   -0.2130 N.2       1 <0>        -0.5136
     24 C12         0.0866    1.4415   -0.0159 C.2       1 <0>         0.4664
     25 N7         -0.9242    2.3748   -0.0360 N.pl3     1 <0>        -0.4631
     26 C13        -1.1472    2.8799   -1.3967 C.3       1 <0>         0.0652
     27 C14        -2.1723    4.0156   -1.3592 C.3       1 <0>        -0.0869
     28 H3         -1.7922    4.8285   -0.7405 H         1 <0>         0.0830
     29 C15        -3.4842    3.4931   -0.7673 C.3       1 <0>        -0.1145
     30 C16        -3.2154    2.9288    0.6305 C.3       1 <0>        -0.0893
     31 H4         -2.8517    3.7246    1.2805 H         1 <0>         0.0817
     32 C17        -2.1600    1.8246    0.5353 C.3       1 <0>         0.0759
     33 C18        -4.5094    2.3503    1.2063 C.3       1 <0>        -0.1468
     34 C19        -2.4208    4.5276   -2.7794 C.3       1 <0>        -0.1480
     35 C20         0.5193   -2.8313   -0.5350 C.3       1 <0>         0.0892
     36 H5          5.2203   10.6284    5.0836 H         1 <0>         0.0986
     37 H6          6.5259    9.6430    5.7855 H         1 <0>         0.0928
     38 H7          6.6243   10.1726    4.0890 H         1 <0>         0.1028
     39 H8          3.8084    4.5533    1.7215 H         1 <0>         0.1060
     40 H9          2.2438    5.3851    1.8905 H         1 <0>         0.1061
     41 H10         0.2102    2.3470    2.4139 H         1 <0>         0.0606
     42 H11         0.8237    3.4350    3.6820 H         1 <0>         0.0641
     43 H12         0.1638    4.1100    2.1729 H         1 <0>         0.0714
     44 H13         2.9773    3.0794    0.0037 H         1 <0>         0.1064
     45 H14         1.3510    3.8018    0.0451 H         1 <0>         0.1099
     46 H15        -0.2074    3.2522   -1.8045 H         1 <0>         0.0777
     47 H16        -1.5219    2.0731   -2.0267 H         1 <0>         0.0561
     48 H17        -3.8846    2.7064   -1.4068 H         1 <0>         0.0649
     49 H18        -4.2042    4.3085   -0.6986 H         1 <0>         0.0707
     50 H19        -2.5300    1.0228   -0.1037 H         1 <0>         0.0622
     51 H20        -1.9559    1.4305    1.5309 H         1 <0>         0.0812
     52 H21        -4.3162    1.9461    2.2000 H         1 <0>         0.0578
     53 H22        -5.2607    3.1371    1.2739 H         1 <0>         0.0612
     54 H23        -4.8734    1.5554    0.5553 H         1 <0>         0.0568
     55 H24        -3.1533    5.3343   -2.7517 H         1 <0>         0.0628
     56 H25        -1.4866    4.8994   -3.2002 H         1 <0>         0.0573
     57 H26        -2.7995    3.7139   -3.3979 H         1 <0>         0.0565
     58 H27         0.4144   -2.9526   -1.6132 H         1 <0>         0.0733
     59 H28         0.8460   -3.7728   -0.0935 H         1 <0>         0.0943
     60 H29        -0.4407   -2.5430   -0.1068 H         1 <0>         0.0911
@<TRIPOS>BOND
     1    1    2 1
     2    1   36 1
     3    1   37 1
     4    1   38 1
     5    2    6 1
     6    2    3 2
     7    3    4 1
     8    4    5 2
     9    5    6 1
    10    5    7 1
    11    7    8 1
    12    8    9 1
    13    8   39 1
    14    8   40 1
    15    9   10 1
    16    9   11 1
    17    9   12 1
    18   11   41 1
    19   11   42 1
    20   11   43 1
    21   12   13 1
    22   12   44 1
    23   12   45 1
    24   13   24 1
    25   13   14 1
    26   14   22 2
    27   14   15 1
    28   15   16 2
    29   15   17 am
    30   17   18 1
    31   17   19 am
    32   19   20 2
    33   19   21 am
    34   21   22 1
    35   21   35 1
    36   22   23 1
    37   23   24 2
    38   24   25 1
    39   25   32 1
    40   25   26 1
    41   26   27 1
    42   26   46 1
    43   26   47 1
    44   27   28 1
    45   27   29 1
    46   27   34 1
    47   29   30 1
    48   29   48 1
    49   29   49 1
    50   30   31 1
    51   30   32 1
    52   30   33 1
    53   32   50 1
    54   32   51 1
    55   33   52 1
    56   33   53 1
    57   33   54 1
    58   34   55 1
    59   34   56 1
    60   34   57 1
    61   35   58 1
    62   35   59 1
    63   35   60 1
@<TRIPOS>MOLECULE
ZINC33281313
   52    56     0     0     0
SMALL
USER_CHARGES
2-[8-fluoro-3-[(3-methyl-1,2,4-oxadiazol-5-yl)methyl]-4-oxo-pyrimido[5,4-b]indol-5-yl]-N-(3-fluoro-4-methyl-phenyl)acetamide
@<TRIPOS>ATOM
      1 C1         -6.0700    0.5192   -6.9338 C.3       1 <0>        -0.1149
      2 C2         -5.5837    0.2995   -5.5245 C.ar      1 <0>        -0.1330
      3 C3         -6.1488    1.0091   -4.4810 C.ar      1 <0>        -0.0729
      4 C4         -5.7096    0.8061   -3.1875 C.ar      1 <0>        -0.1493
      5 C5         -4.6905   -0.1034   -2.9352 C.ar      1 <0>         0.1725
      6 C6         -4.1234   -0.8150   -3.9835 C.ar      1 <0>        -0.1567
      7 C7         -4.5713   -0.6125   -5.2767 C.ar      1 <0>         0.1159
      8 F1         -4.0207   -1.3041   -6.2983 F         1 <0>        -0.1335
      9 N1         -4.2402   -0.3061   -1.6260 N.am      1 <0>        -0.6808
     10 C8         -2.9381   -0.5649   -1.3937 C.2       1 <0>         0.5014
     11 O1         -2.1723   -0.7051   -2.3237 O.2       1 <0>        -0.5009
     12 C9         -2.4336   -0.6799    0.0217 C.3       1 <0>         0.0880
     13 N2         -0.9962   -0.9625    0.0063 N.pl3     1 <0>        -0.4329
     14 C10        -0.4389   -2.2244   -0.0139 C.ar      1 <0>         0.1439
     15 C11        -0.9994   -3.4994   -0.0250 C.ar      1 <0>        -0.1069
     16 C12        -0.1862   -4.6099   -0.0454 C.ar      1 <0>        -0.1011
     17 C13         1.1972   -4.4737   -0.0547 C.ar      1 <0>         0.0711
     18 C14         1.7721   -3.2213   -0.0430 C.ar      1 <0>        -0.0765
     19 C15         0.9595   -2.0862   -0.0232 C.ar      1 <0>        -0.0690
     20 C16         1.2361   -0.6436   -0.0074 C.2       1 <0>         0.1227
     21 C17        -0.0012   -0.0043    0.0104 C.2       1 <0>        -0.0167
     22 C18        -0.0240    1.4100    0.0279 C.2       1 <0>         0.5561
     23 O2         -1.0818    2.0171    0.0389 O.2       1 <0>        -0.5200
     24 N3          1.1530    2.0721    0.0265 N.am      1 <0>        -0.5250
     25 C19         2.3258    1.3895    0.0108 C.2       1 <0>         0.3486
     26 N4          2.3650    0.0876   -0.0065 N.2       1 <0>        -0.4740
     27 C20         1.1639    3.5370    0.0438 C.3       1 <0>         0.1935
     28 C21         1.1788    4.0224    1.4705 C.2       1 <0>         0.1504
     29 N5          2.2399    4.2662    2.2013 N.2       1 <0>        -0.4595
     30 C22         1.7718    4.6743    3.3943 C.2       1 <0>         0.1708
     31 N6          0.4740    4.6581    3.3293 N.2       1 <0>        -0.3752
     32 O3          0.1132    4.2921    2.2306 O.3       1 <0>         0.0975
     33 C23         2.6001    5.0760    4.5874 C.3       1 <0>        -0.0688
     34 F2          1.9813   -5.5737   -0.0747 F         1 <0>        -0.1346
     35 H1         -6.8704    1.2737   -6.9320 H         1 <0>         0.0729
     36 H2         -6.4586   -0.4267   -7.3392 H         1 <0>         0.0729
     37 H3         -5.2359    0.8709   -7.5588 H         1 <0>         0.0725
     38 H4         -6.9379    1.7199   -4.6772 H         1 <0>         0.1381
     39 H5         -6.1553    1.3576   -2.3729 H         1 <0>         0.1344
     40 H6         -3.3339   -1.5261   -3.7898 H         1 <0>         0.1488
     41 H7         -4.9490   -0.2542   -0.7864 H         1 <0>         0.4406
     42 H8         -2.6158    0.2654    0.5538 H         1 <0>         0.1385
     43 H9         -2.9625   -1.4970    0.5343 H         1 <0>         0.1280
     44 H10        -2.0730   -3.6169   -0.0180 H         1 <0>         0.1364
     45 H11        -0.6269   -5.5958   -0.0547 H         1 <0>         0.1476
     46 H12         2.8471   -3.1183   -0.0495 H         1 <0>         0.1475
     47 H13         3.2538    1.9419    0.0105 H         1 <0>         0.2161
     48 H14         2.0607    3.9032   -0.4775 H         1 <0>         0.1529
     49 H15         0.2645    3.9164   -0.4632 H         1 <0>         0.1430
     50 H16         1.9353    5.3612    5.4161 H         1 <0>         0.0898
     51 H17         3.2390    5.9303    4.3193 H         1 <0>         0.0954
     52 H18         3.2306    4.2297    4.8977 H         1 <0>         0.0941
@<TRIPOS>BOND
     1    1    2 1
     2    1   35 1
     3    1   36 1
     4    1   37 1
     5    2    7 ar
     6    2    3 ar
     7    3    4 ar
     8    3   38 1
     9    4    5 ar
    10    4   39 1
    11    5    6 ar
    12    5    9 1
    13    6    7 ar
    14    6   40 1
    15    7    8 1
    16    9   10 am
    17    9   41 1
    18   10   11 2
    19   10   12 1
    20   12   13 1
    21   12   42 1
    22   12   43 1
    23   13   21 1
    24   13   14 1
    25   14   19 ar
    26   14   15 ar
    27   15   16 ar
    28   15   44 1
    29   16   17 ar
    30   16   45 1
    31   17   18 ar
    32   17   34 1
    33   18   19 ar
    34   18   46 1
    35   19   20 1
    36   20   26 1
    37   20   21 2
    38   21   22 1
    39   22   23 2
    40   22   24 am
    41   24   25 1
    42   24   27 1
    43   25   26 2
    44   25   47 1
    45   27   28 1
    46   27   48 1
    47   27   49 1
    48   28   32 1
    49   28   29 2
    50   29   30 1
    51   30   31 2
    52   30   33 1
    53   31   32 1
    54   33   50 1
    55   33   51 1
    56   33   52 1
@<TRIPOS>MOLECULE
ZINC40900958
   67    70     0     0     0
SMALL
USER_CHARGES

@<TRIPOS>ATOM
      1 C1         -0.0450    1.5128    0.0142 C.3       1 <0>        -0.0744
      2 C2         -0.0214    0.0060    0.0008 C.2       1 <0>         0.2969
      3 N1         -1.0662   -0.7715    0.0071 N.2       1 <0>        -0.5400
      4 C3         -0.6813   -2.0606   -0.0089 C.2       1 <0>         0.2978
      5 N2          0.6285   -2.1060   -0.0257 N.2       1 <0>        -0.3331
      6 O1          1.0775   -0.7591   -0.0255 O.3       1 <0>        -0.1010
      7 C4         -1.5879   -3.2343   -0.0073 C.ar      1 <0>        -0.0147
      8 C5         -2.9696   -3.0490    0.0063 C.ar      1 <0>        -0.0680
      9 C6         -3.8114   -4.1406    0.0073 C.ar      1 <0>        -0.1019
     10 C7         -3.2842   -5.4265   -0.0048 C.ar      1 <0>         0.1672
     11 C8         -1.9049   -5.6151   -0.0183 C.ar      1 <0>         0.0901
     12 C9         -1.0593   -4.5245   -0.0252 C.ar      1 <0>        -0.1098
     13 F1         -1.3942   -6.8658   -0.0296 F         1 <0>        -0.1246
     14 N3         -4.1387   -6.5304   -0.0028 N.pl3     1 <0>        -0.6763
     15 C10        -4.5899   -7.1255    1.2625 C.3       1 <0>         0.1468
     16 C11        -4.2744   -8.6244    1.2426 C.3       1 <0>        -0.1209
     17 C12        -4.8952   -9.2558   -0.0056 C.3       1 <0>        -0.0998
     18 C13        -4.2887   -8.6178   -1.2575 C.3       1 <0>        -0.1253
     19 C14        -4.6089   -7.1153   -1.2659 C.3       1 <0>         0.1487
     20 C15        -4.6157  -10.7366   -0.0111 C.2       1 <0>         0.5200
     21 O2         -3.5674  -11.1575    0.4302 O.2       1 <0>        -0.5350
     22 N4         -5.5307  -11.5933   -0.5065 N.am      1 <0>        -0.6167
     23 C16        -6.7534  -11.0986   -1.1573 C.3       1 <0>         0.1114
     24 C17        -6.8917  -11.7858   -2.5199 C.3       1 <0>         0.0409
     25 N5         -6.8303  -13.2423   -2.3387 N.3       1 <0>        -0.5197
     26 C18        -5.5273  -13.6581   -1.8026 C.3       1 <0>         0.0386
     27 C19        -5.3301  -13.0475   -0.4160 C.3       1 <0>         0.1187
     28 C20        -7.1303  -13.9422   -3.5949 C.3       1 <0>         0.0358
     29 C21        -7.3001  -15.4145   -3.3215 C.2       1 <0>         0.5136
     30 O3         -7.1827  -15.8389   -2.1914 O.2       1 <0>        -0.5183
     31 N6         -7.5823  -16.2595   -4.3327 N.am      1 <0>        -0.7300
     32 C22        -7.7474  -17.6907   -4.0669 C.3       1 <0>         0.1368
     33 C23        -8.6320  -18.3119   -5.1497 C.3       1 <0>        -0.1615
     34 C24        -6.3775  -18.3722   -4.0746 C.3       1 <0>        -0.1644
     35 H1          0.9766    1.8923   -0.0004 H         1 <0>         0.1002
     36 H2         -0.5800    1.8755   -0.8635 H         1 <0>         0.1112
     37 H3         -0.5489    1.8602    0.9161 H         1 <0>         0.1113
     38 H4         -3.3805   -2.0502    0.0163 H         1 <0>         0.1470
     39 H5         -4.8817   -3.9965    0.0178 H         1 <0>         0.1442
     40 H6          0.0107   -4.6702   -0.0398 H         1 <0>         0.1445
     41 H7         -4.0683   -6.6533    2.0950 H         1 <0>         0.0743
     42 H8         -5.6646   -6.9797    1.3721 H         1 <0>         0.0590
     43 H9         -3.1941   -8.7685    1.2243 H         1 <0>         0.0806
     44 H10        -4.6897   -9.0955    2.1335 H         1 <0>         0.0729
     45 H11        -5.9724   -9.0898    0.0010 H         1 <0>         0.0914
     46 H12        -3.2082   -8.7620   -1.2523 H         1 <0>         0.0766
     47 H13        -4.7141   -9.0842   -2.1461 H         1 <0>         0.0709
     48 H14        -5.6850   -6.9688   -1.3583 H         1 <0>         0.0602
     49 H15        -4.0997   -6.6365   -2.1023 H         1 <0>         0.0740
     50 H16        -7.6190  -11.3351   -0.5384 H         1 <0>         0.0800
     51 H17        -6.6832  -10.0198   -1.2967 H         1 <0>         0.0925
     52 H18        -7.8476  -11.5151   -2.9685 H         1 <0>         0.0910
     53 H19        -6.0796  -11.4659   -3.1727 H         1 <0>         0.0411
     54 H20        -5.4936  -14.7452   -1.7310 H         1 <0>         0.1055
     55 H21        -4.7341  -13.3121   -2.4654 H         1 <0>         0.0332
     56 H22        -4.3194  -13.2567   -0.0656 H         1 <0>         0.0951
     57 H23        -6.0562  -13.4750    0.2755 H         1 <0>         0.0777
     58 H24        -8.0504  -13.5436   -4.0221 H         1 <0>         0.1067
     59 H25        -6.3100  -13.7954   -4.2975 H         1 <0>         0.0644
     60 H26        -7.6762  -15.9201   -5.2366 H         1 <0>         0.3990
     61 H27        -8.2158  -17.8276   -3.0923 H         1 <0>         0.0888
     62 H28        -8.1636  -18.1750   -6.1244 H         1 <0>         0.0608
     63 H29        -8.7548  -19.3767   -4.9520 H         1 <0>         0.0738
     64 H30        -9.6079  -17.8264   -5.1443 H         1 <0>         0.0620
     65 H31        -5.9091  -18.2353   -5.0493 H         1 <0>         0.0560
     66 H32        -5.7473  -17.9297   -3.3032 H         1 <0>         0.0597
     67 H33        -6.5003  -19.4370   -3.8769 H         1 <0>         0.0667
@<TRIPOS>BOND
     1    1    2 1
     2    1   35 1
     3    1   36 1
     4    1   37 1
     5    2    6 1
     6    2    3 2
     7    3    4 1
     8    4    5 2
     9    4    7 1
    10    5    6 1
    11    7   12 ar
    12    7    8 ar
    13    8    9 ar
    14    8   38 1
    15    9   10 ar
    16    9   39 1
    17   10   11 ar
    18   10   14 1
    19   11   12 ar
    20   11   13 1
    21   12   40 1
    22   14   19 1
    23   14   15 1
    24   15   16 1
    25   15   41 1
    26   15   42 1
    27   16   17 1
    28   16   43 1
    29   16   44 1
    30   17   18 1
    31   17   20 1
    32   17   45 1
    33   18   19 1
    34   18   46 1
    35   18   47 1
    36   19   48 1
    37   19   49 1
    38   20   21 2
    39   20   22 am
    40   22   27 1
    41   22   23 1
    42   23   24 1
    43   23   50 1
    44   23   51 1
    45   24   25 1
    46   24   52 1
    47   24   53 1
    48   25   26 1
    49   25   28 1
    50   26   27 1
    51   26   54 1
    52   26   55 1
    53   27   56 1
    54   27   57 1
    55   28   29 1
    56   28   58 1
    57   28   59 1
    58   29   30 2
    59   29   31 am
    60   31   32 1
    61   31   60 1
    62   32   33 1
    63   32   34 1
    64   32   61 1
    65   33   62 1
    66   33   63 1
    67   33   64 1
    68   34   65 1
    69   34   66 1
    70   34   67 1
@<TRIPOS>MOLECULE
ZINC02137467
   57    59     0     0     0
SMALL
USER_CHARGES
ethyl 3-[4,8-dimethyl-7-(1-methyl-2-oxo-2-phenyl-ethoxy)-2-oxo-chromen-3-yl]propanoate
@<TRIPOS>ATOM
      1 C1          9.3936   -1.5309   -2.1131 C.3       1 <0>        -0.1539
      2 C2          8.7543   -1.0592   -0.8055 C.3       1 <0>         0.0612
      3 O1          7.4792   -0.4260   -1.0910 O.3       1 <0>        -0.3593
      4 C3          6.7854    0.0464   -0.0435 C.2       1 <0>         0.4640
      5 O2          7.2289   -0.0655    1.0748 O.2       1 <0>        -0.5060
      6 C4          5.4533    0.7162   -0.2624 C.3       1 <0>        -0.1097
      7 C5          4.8777    1.1590    1.0843 C.3       1 <0>        -0.0502
      8 C6          3.5457    1.8288    0.8655 C.2       1 <0>        -0.2337
      9 C7          2.4035    1.0935    0.8770 C.2       1 <0>         0.0444
     10 C8          1.1320    1.7869    0.6604 C.ar      1 <0>        -0.1830
     11 C9         -0.0798    1.0864    0.6600 C.ar      1 <0>        -0.0188
     12 C10        -1.2500    1.7561    0.4501 C.ar      1 <0>        -0.2247
     13 C11        -1.2476    3.1350    0.2473 C.ar      1 <0>         0.1816
     14 C12        -0.0576    3.8439    0.2440 C.ar      1 <0>        -0.1305
     15 C13         1.1414    3.1783    0.4501 C.ar      1 <0>         0.1858
     16 O3          2.3127    3.8502    0.4508 O.3       1 <0>        -0.2639
     17 C14         3.4815    3.2206    0.6487 C.2       1 <0>         0.5170
     18 O4          4.5130    3.8682    0.6413 O.2       1 <0>        -0.4558
     19 C15        -0.0659    5.3338    0.0177 C.3       1 <0>        -0.1041
     20 O5         -2.4205    3.7878    0.0454 O.3       1 <0>        -0.2785
     21 C16        -3.5985    2.9863   -0.0646 C.3       1 <0>         0.0527
     22 H1         -3.3767    2.1300   -0.5310 H         1 <0>         0.0941
     23 C17        -4.1395    2.6803    1.3335 C.3       1 <0>        -0.1820
     24 C18        -4.6421    3.7329   -0.8547 C.2       1 <0>         0.3987
     25 O6         -4.5193    4.9236   -1.0482 O.2       1 <0>        -0.4175
     26 C19        -5.8104    3.0169   -1.3916 C.ar      1 <0>        -0.1667
     27 C20        -5.9527    1.6425   -1.1756 C.ar      1 <0>        -0.0785
     28 C21        -7.0521    0.9795   -1.6786 C.ar      1 <0>        -0.1294
     29 C22        -8.0087    1.6689   -2.4034 C.ar      1 <0>        -0.0830
     30 C23        -7.8726    3.0282   -2.6256 C.ar      1 <0>        -0.1284
     31 C24        -6.7811    3.7062   -2.1254 C.ar      1 <0>        -0.0562
     32 C25         2.4439   -0.3955    1.1059 C.3       1 <0>        -0.1348
     33 H2          8.7337   -2.2472   -2.6025 H         1 <0>         0.0668
     34 H3          9.5517   -0.6752   -2.7696 H         1 <0>         0.0675
     35 H4         10.3508   -2.0062   -1.8989 H         1 <0>         0.0811
     36 H5          9.4143   -0.3428   -0.3162 H         1 <0>         0.0712
     37 H6          8.5963   -1.9148   -0.1491 H         1 <0>         0.0707
     38 H7          4.7676    0.0148   -0.7376 H         1 <0>         0.1062
     39 H8          5.5856    1.5868   -0.9048 H         1 <0>         0.1097
     40 H9          5.5634    1.8604    1.5596 H         1 <0>         0.0942
     41 H10         4.7454    0.2884    1.7268 H         1 <0>         0.0921
     42 H11        -0.0881    0.0185    0.8210 H         1 <0>         0.1451
     43 H12        -2.1846    1.2148    0.4454 H         1 <0>         0.1423
     44 H13         0.0210    5.5397   -1.0492 H         1 <0>         0.0743
     45 H14        -0.9990    5.7533    0.3939 H         1 <0>         0.0785
     46 H15         0.7743    5.7860    0.5446 H         1 <0>         0.0739
     47 H16        -3.3846    2.1402    1.9050 H         1 <0>         0.0812
     48 H17        -4.3813    3.6136    1.8419 H         1 <0>         0.0796
     49 H18        -5.0380    2.0689    1.2496 H         1 <0>         0.0862
     50 H19        -5.2052    1.1025   -0.6134 H         1 <0>         0.1308
     51 H20        -7.1652   -0.0812   -1.5098 H         1 <0>         0.1326
     52 H21        -8.8657    1.1433   -2.7981 H         1 <0>         0.1309
     53 H22        -8.6230    3.5591   -3.1925 H         1 <0>         0.1332
     54 H23        -6.6759    4.7668   -2.3002 H         1 <0>         0.1367
     55 H24         2.5425   -0.9077    0.1488 H         1 <0>         0.0931
     56 H25         3.2955   -0.6427    1.7397 H         1 <0>         0.0892
     57 H26         1.5229   -0.7130    1.5947 H         1 <0>         0.0822
@<TRIPOS>BOND
     1    1    2 1
     2    1   33 1
     3    1   34 1
     4    1   35 1
     5    2    3 1
     6    2   36 1
     7    2   37 1
     8    3    4 1
     9    4    5 2
    10    4    6 1
    11    6    7 1
    12    6   38 1
    13    6   39 1
    14    7    8 1
    15    7   40 1
    16    7   41 1
    17    8   17 1
    18    8    9 2
    19    9   10 1
    20    9   32 1
    21   10   15 ar
    22   10   11 ar
    23   11   12 ar
    24   11   42 1
    25   12   13 ar
    26   12   43 1
    27   13   14 ar
    28   13   20 1
    29   14   15 ar
    30   14   19 1
    31   15   16 1
    32   16   17 1
    33   17   18 2
    34   19   44 1
    35   19   45 1
    36   19   46 1
    37   20   21 1
    38   21   22 1
    39   21   23 1
    40   21   24 1
    41   23   47 1
    42   23   48 1
    43   23   49 1
    44   24   25 2
    45   24   26 1
    46   26   31 ar
    47   26   27 ar
    48   27   28 ar
    49   27   50 1
    50   28   29 ar
    51   28   51 1
    52   29   30 ar
    53   29   52 1
    54   30   31 ar
    55   30   53 1
    56   31   54 1
    57   32   55 1
    58   32   56 1
    59   32   57 1
@<TRIPOS>MOLECULE
ZINC11692532
   61    64     0     0     0
SMALL
USER_CHARGES
N-[[1-[4-(2,4-dimethylphenoxy)butyl]benzimidazol-2-yl]methyl]-N-methyl-furan-2-carboxamide
@<TRIPOS>ATOM
      1 C1         -2.5651    3.8579   -0.0064 C.3       1 <0>        -0.1116
      2 C2         -1.2517    3.1190   -0.0104 C.ar      1 <0>        -0.1183
      3 C3         -1.2376    1.7365   -0.0425 C.ar      1 <0>        -0.0869
      4 C4         -0.0351    1.0568   -0.0409 C.ar      1 <0>        -0.2008
      5 C5          1.1593    1.7625   -0.0178 C.ar      1 <0>         0.1215
      6 C6          1.1425    3.1493    0.0090 C.ar      1 <0>        -0.1120
      7 C7         -0.0630    3.8244    0.0126 C.ar      1 <0>        -0.0844
      8 C8          2.4379    3.9189    0.0346 C.3       1 <0>        -0.1059
      9 O1          2.3437    1.0962   -0.0219 O.3       1 <0>        -0.3121
     10 C9          2.2849   -0.3313   -0.0506 C.3       1 <0>         0.0608
     11 C10         3.7052   -0.9004   -0.0510 C.3       1 <0>        -0.1154
     12 C11         3.6422   -2.4288   -0.0816 C.3       1 <0>        -0.1342
     13 C12         5.0624   -2.9978   -0.0820 C.3       1 <0>         0.1084
     14 N1          5.0021   -4.4613   -0.1114 N.pl3     1 <0>        -0.4822
     15 C13         4.9660   -5.3009    0.9839 C.ar      1 <0>         0.0534
     16 C14         4.9727   -5.0991    2.3575 C.ar      1 <0>        -0.1130
     17 C15         4.9271   -6.1836    3.2072 C.ar      1 <0>        -0.0975
     18 C16         4.8746   -7.4738    2.6986 C.ar      1 <0>        -0.1291
     19 C17         4.8590   -7.6911    1.3500 C.ar      1 <0>        -0.0598
     20 C18         4.9094   -6.6072    0.4695 C.ar      1 <0>         0.0429
     21 N2          4.9231   -6.5001   -0.8840 N.2       1 <0>        -0.4582
     22 C19         4.9773   -5.2451   -1.2230 C.2       1 <0>         0.2565
     23 C20         5.0086   -4.7342   -2.6404 C.3       1 <0>         0.1831
     24 N3          6.3987   -4.6262   -3.0900 N.am      1 <0>        -0.6104
     25 C21         7.0979   -3.3415   -3.0063 C.3       1 <0>         0.0823
     26 C22         7.0344   -5.7086   -3.5805 C.2       1 <0>         0.6111
     27 O2          8.2136   -5.6409   -3.8737 O.2       1 <0>        -0.5117
     28 C23         6.3051   -6.9681   -3.7611 C.2       1 <0>        -0.0855
     29 C24         6.7926   -8.1006   -4.3478 C.2       1 <0>        -0.1159
     30 C25         5.7620   -9.0526   -4.3058 C.2       1 <0>        -0.2318
     31 C26         4.7040   -8.4669   -3.7028 C.2       1 <0>         0.0073
     32 O3          5.0369   -7.2127   -3.3712 O.3       1 <0>        -0.1341
     33 H1         -2.8737    4.0560   -1.0329 H         1 <0>         0.0689
     34 H2         -3.3222    3.2506    0.4898 H         1 <0>         0.0652
     35 H3         -2.4495    4.8015    0.5268 H         1 <0>         0.0658
     36 H4         -2.1675    1.1878   -0.0649 H         1 <0>         0.1241
     37 H5         -0.0246   -0.0229   -0.0622 H         1 <0>         0.1263
     38 H6         -0.0767    4.9041    0.0331 H         1 <0>         0.1290
     39 H7          2.7587    4.1244   -0.9867 H         1 <0>         0.0683
     40 H8          2.2913    4.8594    0.5656 H         1 <0>         0.0652
     41 H9          3.2007    3.3294    0.5434 H         1 <0>         0.0696
     42 H10         1.7498   -0.6906    0.8284 H         1 <0>         0.0625
     43 H11         1.7634   -0.6555   -0.9512 H         1 <0>         0.0630
     44 H12         4.2403   -0.5411   -0.9299 H         1 <0>         0.0798
     45 H13         4.2267   -0.5762    0.8496 H         1 <0>         0.0797
     46 H14         3.1070   -2.7881    0.7973 H         1 <0>         0.0767
     47 H15         3.1207   -2.7529   -0.9822 H         1 <0>         0.0748
     48 H16         5.5976   -2.6385   -0.9610 H         1 <0>         0.0937
     49 H17         5.5840   -2.6737    0.8186 H         1 <0>         0.0949
     50 H18         5.0138   -4.0971    2.7584 H         1 <0>         0.1204
     51 H19         4.9319   -6.0282    4.2759 H         1 <0>         0.1302
     52 H20         4.8393   -8.3143    3.3759 H         1 <0>         0.1297
     53 H21         4.8196   -8.6994    0.9650 H         1 <0>         0.1281
     54 H22         4.4701   -5.4261   -3.2880 H         1 <0>         0.1293
     55 H23         4.5355   -3.7532   -2.6836 H         1 <0>         0.1041
     56 H24         7.6683   -3.2980   -2.0785 H         1 <0>         0.0576
     57 H25         7.7753   -3.2406   -3.8543 H         1 <0>         0.0848
     58 H26         6.3703   -2.5300   -3.0239 H         1 <0>         0.0766
     59 H27         7.7798   -8.2372   -4.7640 H         1 <0>         0.1558
     60 H28         5.8063  -10.0631   -4.6842 H         1 <0>         0.1538
     61 H29         3.7489   -8.9347   -3.5147 H         1 <0>         0.2054
@<TRIPOS>BOND
     1    1    2 1
     2    1   33 1
     3    1   34 1
     4    1   35 1
     5    2    7 ar
     6    2    3 ar
     7    3    4 ar
     8    3   36 1
     9    4    5 ar
    10    4   37 1
    11    5    6 ar
    12    5    9 1
    13    6    7 ar
    14    6    8 1
    15    7   38 1
    16    8   39 1
    17    8   40 1
    18    8   41 1
    19    9   10 1
    20   10   11 1
    21   10   42 1
    22   10   43 1
    23   11   12 1
    24   11   44 1
    25   11   45 1
    26   12   13 1
    27   12   46 1
    28   12   47 1
    29   13   14 1
    30   13   48 1
    31   13   49 1
    32   14   22 1
    33   14   15 1
    34   15   20 ar
    35   15   16 ar
    36   16   17 ar
    37   16   50 1
    38   17   18 ar
    39   17   51 1
    40   18   19 ar
    41   18   52 1
    42   19   20 ar
    43   19   53 1
    44   20   21 1
    45   21   22 2
    46   22   23 1
    47   23   24 1
    48   23   54 1
    49   23   55 1
    50   24   25 1
    51   24   26 am
    52   25   56 1
    53   25   57 1
    54   25   58 1
    55   26   27 2
    56   26   28 1
    57   28   32 1
    58   28   29 2
    59   29   30 1
    60   29   59 1
    61   30   31 2
    62   30   60 1
    63   31   32 1
    64   31   61 1
@<TRIPOS>MOLECULE
ZINC14085787
   57    59     0     0     0
SMALL
USER_CHARGES
N-[[1-[(2-chlorophenyl)methyl]-3-phenyl-pyrazol-4-yl]methyl-methyl-sulfamoyl]-N-ethyl-ethanamine
@<TRIPOS>ATOM
      1 C1          5.5303    4.4280    4.4887 C.3       1 <0>        -0.1747
      2 C2          5.1203    5.0551    3.1547 C.3       1 <0>         0.1200
      3 N1          4.3033    4.1030    2.3982 N.pl3     1 <0>        -1.0056
      4 C3          4.9477    3.0871    1.5622 C.3       1 <0>         0.1084
      5 C4          5.2651    3.6828    0.1892 C.3       1 <0>        -0.1768
      6 S1          2.6513    4.1751    2.4881 S.o2      1 <0>         2.7761
      7 O1          2.3401    4.8959    3.6725 O.2       1 <0>        -0.9707
      8 O2          2.1737    2.8581    2.2501 O.2       1 <0>        -0.9736
      9 N2          2.1320    5.1035    1.2189 N.pl3     1 <0>        -1.0043
     10 C5          2.0440    6.5587    1.3635 C.3       1 <0>         0.0953
     11 C6          1.7605    4.4695   -0.0485 C.3       1 <0>         0.1982
     12 C7          0.2606    4.3458   -0.1277 C.2       1 <0>        -0.2456
     13 C8         -0.5271    3.6588    0.7281 C.2       1 <0>         0.0827
     14 N3         -1.8060    3.7919    0.3156 N.pl3     1 <0>        -0.3602
     15 N4         -1.8115    4.5845   -0.8392 N.2       1 <0>        -0.2695
     16 C9         -0.5688    4.9255   -1.1073 C.2       1 <0>         0.1230
     17 C10        -0.1202    5.7667   -2.2448 C.ar      1 <0>        -0.0101
     18 C11         0.8417    6.7551   -2.0467 C.ar      1 <0>        -0.1059
     19 C12         1.2588    7.5313   -3.1091 C.ar      1 <0>        -0.1191
     20 C13         0.7157    7.3367   -4.3662 C.ar      1 <0>        -0.1129
     21 C14        -0.2430    6.3602   -4.5674 C.ar      1 <0>        -0.1187
     22 C15        -0.6635    5.5748   -3.5133 C.ar      1 <0>        -0.0911
     23 C16        -2.9828    3.2040    0.9604 C.3       1 <0>         0.1725
     24 C17        -3.9790    4.2904    1.2742 C.ar      1 <0>        -0.1028
     25 C18        -5.0657    4.4927    0.4441 C.ar      1 <0>        -0.0741
     26 C19        -5.9792    5.4894    0.7315 C.ar      1 <0>        -0.1166
     27 C20        -5.8071    6.2841    1.8497 C.ar      1 <0>        -0.0955
     28 C21        -4.7214    6.0826    2.6806 C.ar      1 <0>        -0.1135
     29 C22        -3.8091    5.0817    2.3960 C.ar      1 <0>        -0.0184
     30 Cl1        -2.4489    4.8232    3.4432 Cl        1 <0>        -0.0619
     31 H1          4.6377    4.1789    5.0626 H         1 <0>         0.0604
     32 H2          6.1070    3.5221    4.3024 H         1 <0>         0.0601
     33 H3          6.1382    5.1364    5.0516 H         1 <0>         0.0700
     34 H4          6.0129    5.3042    2.5808 H         1 <0>         0.0802
     35 H5          4.5436    5.9610    3.3410 H         1 <0>         0.0798
     36 H6          5.8716    2.7579    2.0378 H         1 <0>         0.0834
     37 H7          4.2772    2.2360    1.4429 H         1 <0>         0.0906
     38 H8          4.3519    4.0793   -0.2547 H         1 <0>         0.0578
     39 H9          5.9932    4.4862    0.3011 H         1 <0>         0.0611
     40 H10         5.6761    2.9073   -0.4572 H         1 <0>         0.0703
     41 H11         1.0631    6.8261    1.7564 H         1 <0>         0.0594
     42 H12         2.8169    6.9028    2.0508 H         1 <0>         0.0677
     43 H13         2.1867    7.0297    0.3910 H         1 <0>         0.0746
     44 H14         2.2103    3.4783   -0.1045 H         1 <0>         0.0905
     45 H15         2.1191    5.0787   -0.8783 H         1 <0>         0.0903
     46 H16        -0.1927    3.1007    1.5902 H         1 <0>         0.1739
     47 H17         1.2628    6.9110   -1.0645 H         1 <0>         0.1275
     48 H18         2.0075    8.2947   -2.9576 H         1 <0>         0.1256
     49 H19         1.0416    7.9493   -5.1938 H         1 <0>         0.1236
     50 H20        -0.6635    6.2122   -5.5511 H         1 <0>         0.1252
     51 H21        -1.4121    4.8126   -3.6714 H         1 <0>         0.1246
     52 H22        -3.4388    2.4757    0.2898 H         1 <0>         0.1012
     53 H23        -2.6820    2.7092    1.8838 H         1 <0>         0.1102
     54 H24        -5.2008    3.8720   -0.4294 H         1 <0>         0.1344
     55 H25        -6.8278    5.6473    0.0825 H         1 <0>         0.1327
     56 H26        -6.5216    7.0623    2.0742 H         1 <0>         0.1346
     57 H27        -4.5869    6.7036    3.5538 H         1 <0>         0.1357
@<TRIPOS>BOND
     1    1    2 1
     2    1   31 1
     3    1   32 1
     4    1   33 1
     5    2    3 1
     6    2   34 1
     7    2   35 1
     8    3    4 1
     9    3    6 1
    10    4    5 1
    11    4   36 1
    12    4   37 1
    13    5   38 1
    14    5   39 1
    15    5   40 1
    16    6    7 2
    17    6    8 2
    18    6    9 1
    19    9   10 1
    20    9   11 1
    21   10   41 1
    22   10   42 1
    23   10   43 1
    24   11   12 1
    25   11   44 1
    26   11   45 1
    27   12   16 1
    28   12   13 2
    29   13   14 1
    30   13   46 1
    31   14   15 1
    32   14   23 1
    33   15   16 2
    34   16   17 1
    35   17   22 ar
    36   17   18 ar
    37   18   19 ar
    38   18   47 1
    39   19   20 ar
    40   19   48 1
    41   20   21 ar
    42   20   49 1
    43   21   22 ar
    44   21   50 1
    45   22   51 1
    46   23   24 1
    47   23   52 1
    48   23   53 1
    49   24   29 ar
    50   24   25 ar
    51   25   26 ar
    52   25   54 1
    53   26   27 ar
    54   26   55 1
    55   27   28 ar
    56   27   56 1
    57   28   29 ar
    58   28   57 1
    59   29   30 1
@<TRIPOS>MOLECULE
ZINC34763928
   58    59     0     0     0
SMALL
USER_CHARGES

@<TRIPOS>ATOM
      1 C1         -0.0187    1.5258    0.0104 C.3       1 <0>        -0.1500
      2 C2          0.0021   -0.0041    0.0020 C.3       1 <0>        -0.1397
      3 C3          0.7182   -0.4975   -1.2568 C.3       1 <0>         0.1149
      4 N1          0.7381   -1.9623   -1.2648 N.am      1 <0>        -0.6055
      5 C4         -0.3566   -2.7063   -1.8928 C.3       1 <0>         0.1022
      6 C5         -0.0285   -2.9488   -3.3674 C.3       1 <0>        -0.1442
      7 C6         -1.1718   -3.7257   -4.0232 C.3       1 <0>        -0.1514
      8 C7          1.7635   -2.6255   -0.6946 C.2       1 <0>         0.5335
      9 O1          2.6697   -2.0096   -0.1747 O.2       1 <0>        -0.5179
     10 C8          1.7839   -4.1324   -0.7028 C.3       1 <0>        -0.1477
     11 S1          3.2812   -4.7214    0.1349 S.3       1 <0>         0.0549
     12 C9          3.1587   -6.4767    0.0426 C.ar      1 <0>         0.1924
     13 C10         4.1617   -7.2985    0.6049 C.ar      1 <0>        -0.2124
     14 C11         4.0127   -8.6860    0.5021 C.ar      1 <0>         0.2478
     15 N2          2.9502   -9.1739   -0.1108 N.ar      1 <0>        -0.5176
     16 C12         2.0267   -8.3717   -0.6280 C.ar      1 <0>         0.4060
     17 N3          2.1192   -7.0518   -0.5519 N.ar      1 <0>        -0.5261
     18 C13         0.8533   -8.9711   -1.3063 C.ar      1 <0>        -0.0587
     19 C14         0.7261  -10.3572   -1.3904 C.ar      1 <0>        -0.0627
     20 C15        -0.3689  -10.9096   -2.0228 C.ar      1 <0>        -0.1303
     21 C16        -1.3393  -10.0912   -2.5727 C.ar      1 <0>        -0.0913
     22 C17        -1.2186   -8.7154   -2.4923 C.ar      1 <0>        -0.1313
     23 C18        -0.1307   -8.1514   -1.8578 C.ar      1 <0>        -0.0666
     24 C19         5.0513   -9.6107    1.0829 C.3       1 <0>        -0.1161
     25 C20         5.3302   -6.7114    1.2791 C.2       1 <0>         0.5261
     26 O2          5.2911   -6.4802    2.4717 O.2       1 <0>        -0.4762
     27 O3          6.4441   -6.4298    0.5742 O.3       1 <0>        -0.3395
     28 C21         7.5404   -5.8612    1.2931 C.3       1 <0>         0.0567
     29 C22         8.7056   -5.6126    0.3332 C.3       1 <0>        -0.1525
     30 H1          1.0039    1.9031    0.0027 H         1 <0>         0.0577
     31 H2         -0.5459    1.8868   -0.8726 H         1 <0>         0.0557
     32 H3         -0.5289    1.8773    0.9072 H         1 <0>         0.0587
     33 H4          0.5293   -0.3651    0.8851 H         1 <0>         0.0669
     34 H5         -1.0205   -0.3814    0.0098 H         1 <0>         0.0629
     35 H6          0.1910   -0.1364   -2.1398 H         1 <0>         0.0807
     36 H7          1.7408   -0.1202   -1.2645 H         1 <0>         0.0869
     37 H8         -0.4829   -3.6633   -1.3865 H         1 <0>         0.0815
     38 H9         -1.2787   -2.1301   -1.8157 H         1 <0>         0.0866
     39 H10         0.0977   -1.9918   -3.8736 H         1 <0>         0.0690
     40 H11         0.8935   -3.5250   -3.4445 H         1 <0>         0.0643
     41 H12        -1.2980   -4.6828   -3.5169 H         1 <0>         0.0578
     42 H13        -2.0938   -3.1495   -3.9461 H         1 <0>         0.0579
     43 H14        -0.9380   -3.8985   -5.0737 H         1 <0>         0.0603
     44 H15         0.9039   -4.5105   -0.1826 H         1 <0>         0.1261
     45 H16         1.7790   -4.4901   -1.7324 H         1 <0>         0.1269
     46 H17         1.4832  -10.9971   -0.9618 H         1 <0>         0.1391
     47 H18        -0.4684  -11.9830   -2.0889 H         1 <0>         0.1307
     48 H19        -2.1944  -10.5281   -3.0669 H         1 <0>         0.1277
     49 H20        -1.9791   -8.0815   -2.9237 H         1 <0>         0.1294
     50 H21        -0.0397   -7.0773   -1.7917 H         1 <0>         0.1330
     51 H22         4.7925   -9.8451    2.1154 H         1 <0>         0.0989
     52 H23         5.0859  -10.5306    0.4992 H         1 <0>         0.0984
     53 H24         6.0268   -9.1253    1.0541 H         1 <0>         0.0824
     54 H25         7.2306   -4.9169    1.7407 H         1 <0>         0.0731
     55 H26         7.8562   -6.5488    2.0776 H         1 <0>         0.0714
     56 H27         9.0154   -6.5569   -0.1144 H         1 <0>         0.0673
     57 H28         8.3897   -4.9249   -0.4513 H         1 <0>         0.0689
     58 H29         9.5418   -5.1788    0.8816 H         1 <0>         0.0827
@<TRIPOS>BOND
     1    1    2 1
     2    1   30 1
     3    1   31 1
     4    1   32 1
     5    2    3 1
     6    2   33 1
     7    2   34 1
     8    3    4 1
     9    3   35 1
    10    3   36 1
    11    4    5 1
    12    4    8 am
    13    5    6 1
    14    5   37 1
    15    5   38 1
    16    6    7 1
    17    6   39 1
    18    6   40 1
    19    7   41 1
    20    7   42 1
    21    7   43 1
    22    8    9 2
    23    8   10 1
    24   10   11 1
    25   10   44 1
    26   10   45 1
    27   11   12 1
    28   12   17 ar
    29   12   13 ar
    30   13   14 ar
    31   13   25 1
    32   14   15 ar
    33   14   24 1
    34   15   16 ar
    35   16   17 ar
    36   16   18 1
    37   18   23 ar
    38   18   19 ar
    39   19   20 ar
    40   19   46 1
    41   20   21 ar
    42   20   47 1
    43   21   22 ar
    44   21   48 1
    45   22   23 ar
    46   22   49 1
    47   23   50 1
    48   24   51 1
    49   24   52 1
    50   24   53 1
    51   25   26 2
    52   25   27 1
    53   27   28 1
    54   28   29 1
    55   28   54 1
    56   28   55 1
    57   29   56 1
    58   29   57 1
    59   29   58 1
@<TRIPOS>MOLECULE
ZINC11416525
   60    61     0     0     0
SMALL
USER_CHARGES

@<TRIPOS>ATOM
      1 C1          0.2050    1.8858    0.6075 C.3       1 <0>        -0.1544
      2 C2          0.2548    0.3800    0.3411 C.3       1 <0>        -0.1418
      3 C3         -1.1616   -0.1404    0.0887 C.3       1 <0>         0.1180
      4 H1         -1.6192    0.4291   -0.7202 H         1 <0>         0.1131
      5 C4         -1.1000   -1.6190   -0.3000 C.3       1 <0>        -0.1732
      6 N1         -1.9619    0.0114    1.3064 N.pl3     1 <0>        -0.4455
      7 C5         -3.1570    0.6803    1.4377 C.2       1 <0>         0.2172
      8 N2         -3.5258    0.5677    2.6924 N.2       1 <0>        -0.2619
      9 N3         -2.6557   -0.1161    3.3457 N.2       1 <0>        -0.2883
     10 C6         -1.6801   -0.4864    2.5464 C.2       1 <0>         0.1686
     11 S1         -0.2695   -1.4434    2.9927 S.3       1 <0>         0.0012
     12 C7         -0.5052   -1.7744    4.7606 C.3       1 <0>        -0.1033
     13 C8          0.6654   -2.6093    5.2836 C.3       1 <0>        -0.0798
     14 C9          1.9554   -1.7917    5.1934 C.3       1 <0>        -0.1545
     15 C10         0.4062   -2.9939    6.7416 C.3       1 <0>        -0.1436
     16 C11        -3.8880    1.3917    0.3675 C.ar      1 <0>        -0.0302
     17 C12        -3.8080    0.9448   -0.9526 C.ar      1 <0>        -0.0579
     18 C13        -4.4924    1.6131   -1.9464 C.ar      1 <0>        -0.1306
     19 C14        -5.2570    2.7243   -1.6371 C.ar      1 <0>        -0.0069
     20 C15        -5.3405    3.1724   -0.3310 C.ar      1 <0>        -0.6729
     21 C16        -4.6654    2.5095    0.6734 C.ar      1 <0>         0.0227
     22 S2         -6.3169    4.5883    0.0520 S.o2      1 <0>         2.6876
     23 O1         -5.7939    5.1282    1.2579 O.2       1 <0>        -0.9463
     24 O2         -6.4150    5.3494   -1.1440 O.2       1 <0>        -0.9511
     25 N4         -7.8446    4.0506    0.3975 N.pl3     1 <0>        -0.9938
     26 C17        -8.2039    3.7001    1.7738 C.3       1 <0>         0.1178
     27 C18        -8.8684    4.9015    2.4491 C.3       1 <0>        -0.1748
     28 C19        -8.8367    3.9255   -0.6731 C.3       1 <0>         0.1075
     29 C20        -8.8436    2.4879   -1.1966 C.3       1 <0>        -0.1783
     30 H2          1.2141    2.2566    0.7873 H         1 <0>         0.0669
     31 H3         -0.2200    2.3940   -0.2581 H         1 <0>         0.0572
     32 H4         -0.4147    2.0796    1.4830 H         1 <0>         0.0509
     33 H5          0.8745    0.1862   -0.5345 H         1 <0>         0.0924
     34 H6          0.6798   -0.1282    1.2067 H         1 <0>         0.0866
     35 H7         -0.6424   -2.1885    0.5089 H         1 <0>         0.0789
     36 H8         -2.1091   -1.9897   -0.4798 H         1 <0>         0.0661
     37 H9         -0.5046   -1.7320   -1.2060 H         1 <0>         0.0877
     38 H10        -0.5499   -0.8307    5.3041 H         1 <0>         0.0967
     39 H11        -1.4361   -2.3223    4.9067 H         1 <0>         0.0960
     40 H12         0.7649   -3.5127    4.6818 H         1 <0>         0.0808
     41 H13         2.7894   -2.3865    5.5660 H         1 <0>         0.0621
     42 H14         2.1400   -1.5177    4.1547 H         1 <0>         0.0608
     43 H15         1.8559   -0.8884    5.7952 H         1 <0>         0.0606
     44 H16        -0.5128   -3.5764    6.8059 H         1 <0>         0.0593
     45 H17         1.2402   -3.5887    7.1143 H         1 <0>         0.0642
     46 H18         0.3067   -2.0906    7.3435 H         1 <0>         0.0601
     47 H19        -3.2114    0.0779   -1.1953 H         1 <0>         0.1348
     48 H20        -4.4312    1.2687   -2.9681 H         1 <0>         0.1431
     49 H21        -5.7907    3.2442   -2.4190 H         1 <0>         0.1467
     50 H22        -4.7353    2.8575    1.6935 H         1 <0>         0.1508
     51 H23        -8.8970    2.8588    1.7653 H         1 <0>         0.0826
     52 H24        -7.3049    3.4247    2.3251 H         1 <0>         0.0833
     53 H25        -8.1754    5.7427    2.4576 H         1 <0>         0.0639
     54 H26        -9.7674    5.1769    1.8978 H         1 <0>         0.0601
     55 H27        -9.1358    4.6407    3.4732 H         1 <0>         0.0710
     56 H28        -9.8240    4.1755   -0.2846 H         1 <0>         0.0879
     57 H29        -8.5827    4.6067   -1.4853 H         1 <0>         0.0945
     58 H30        -9.5818    2.3948   -1.9932 H         1 <0>         0.0719
     59 H31        -7.8564    2.2379   -1.5851 H         1 <0>         0.0546
     60 H32        -9.0976    1.8067   -0.3845 H         1 <0>         0.0624
@<TRIPOS>BOND
     1    1    2 1
     2    1   30 1
     3    1   31 1
     4    1   32 1
     5    2    3 1
     6    2   33 1
     7    2   34 1
     8    3    4 1
     9    3    5 1
    10    3    6 1
    11    5   35 1
    12    5   36 1
    13    5   37 1
    14    6   10 1
    15    6    7 1
    16    7    8 2
    17    7   16 1
    18    8    9 1
    19    9   10 2
    20   10   11 1
    21   11   12 1
    22   12   13 1
    23   12   38 1
    24   12   39 1
    25   13   14 1
    26   13   15 1
    27   13   40 1
    28   14   41 1
    29   14   42 1
    30   14   43 1
    31   15   44 1
    32   15   45 1
    33   15   46 1
    34   16   21 ar
    35   16   17 ar
    36   17   18 ar
    37   17   47 1
    38   18   19 ar
    39   18   48 1
    40   19   20 ar
    41   19   49 1
    42   20   21 ar
    43   20   22 1
    44   21   50 1
    45   22   23 2
    46   22   24 2
    47   22   25 1
    48   25   26 1
    49   25   28 1
    50   26   27 1
    51   26   51 1
    52   26   52 1
    53   27   53 1
    54   27   54 1
    55   27   55 1
    56   28   29 1
    57   28   56 1
    58   28   57 1
    59   29   58 1
    60   29   59 1
    61   29   60 1
@<TRIPOS>MOLECULE
ZINC05812595
   54    55     0     0     0
SMALL
USER_CHARGES
2-methoxysulfinylethyl 2-[2-(2-methoxysulfinylethoxycarbonyl)phenyl]disulfanylbenzoate
@<TRIPOS>ATOM
      1 C1          0.1693   12.3143    0.0665 C.3       1 <0>         0.0531
      2 O1          0.9544   11.1204    0.0526 O.3       1 <0>        -0.6727
      3 S1          0.1329    9.8392    0.0536 S.o       1 <0>         1.5160
      4 O2         -0.5237    9.8528    1.3137 O.2       1 <0>        -0.8794
      5 C2          1.3776    8.5198    0.0346 C.3       1 <0>        -0.4880
      6 C3          0.6784    7.1589    0.0340 C.3       1 <0>         0.0937
      7 O3          1.6747    6.1028    0.0188 O.3       1 <0>        -0.3441
      8 C4          1.2210    4.8334    0.0163 C.2       1 <0>         0.5052
      9 O4          0.0252    4.6153    0.0266 O.2       1 <0>        -0.4734
     10 C5          2.1730    3.7120    0.0012 C.ar      1 <0>        -0.1081
     11 C6          3.5499    3.9572   -0.0101 C.ar      1 <0>        -0.0467
     12 C7          4.4353    2.9033   -0.0237 C.ar      1 <0>        -0.1295
     13 C8          3.9711    1.5956   -0.0259 C.ar      1 <0>        -0.0590
     14 C9          2.6183    1.3341   -0.0099 C.ar      1 <0>        -0.1379
     15 C10         1.7050    2.3853   -0.0014 C.ar      1 <0>        -0.0576
     16 S2         -0.0259    2.0557    0.0133 S.3       1 <0>         0.0190
     17 S3          0.0021   -0.0041    0.0020 S.3       1 <0>         0.0191
     18 C11         0.1739   -0.3172    1.7274 C.ar      1 <0>        -0.0577
     19 C12         0.2522    0.7425    2.6275 C.ar      1 <0>        -0.1379
     20 C13         0.3822    0.4938    3.9765 C.ar      1 <0>        -0.0589
     21 C14         0.4460   -0.8093    4.4491 C.ar      1 <0>        -0.1295
     22 C15         0.3758   -1.8716    3.5763 C.ar      1 <0>        -0.0466
     23 C16         0.2388   -1.6394    2.2039 C.ar      1 <0>        -0.1081
     24 C17         0.1636   -2.7696    1.2653 C.2       1 <0>         0.5052
     25 O5          0.0450   -2.5629    0.0733 O.2       1 <0>        -0.4734
     26 O6          0.2263   -4.0346    1.7270 O.3       1 <0>        -0.3441
     27 C18         0.1459   -5.1000    0.7438 C.3       1 <0>         0.0937
     28 C19         0.2335   -6.4540    1.4507 C.3       1 <0>        -0.4879
     29 S4          0.1331   -7.7851    0.2223 S.o       1 <0>         1.5159
     30 O7          1.3166   -7.7941   -0.5641 O.2       1 <0>        -0.8794
     31 O8          0.2314   -9.0584    1.0502 O.3       1 <0>        -0.6727
     32 C20         0.1734  -10.2595    0.2783 C.3       1 <0>         0.0531
     33 H1          0.8282   13.1826    0.0649 H         1 <0>         0.1039
     34 H2         -0.4682   12.3403   -0.8173 H         1 <0>         0.0722
     35 H3         -0.4512   12.3308    0.9625 H         1 <0>         0.0679
     36 H4          2.0092    8.6033    0.9191 H         1 <0>         0.0994
     37 H5          1.9922    8.6129   -0.8608 H         1 <0>         0.1295
     38 H6          0.0468    7.0754   -0.8505 H         1 <0>         0.0887
     39 H7          0.0638    7.0658    0.9294 H         1 <0>         0.0786
     40 H8          3.9182    4.9725   -0.0078 H         1 <0>         0.1451
     41 H9          5.4980    3.0953   -0.0325 H         1 <0>         0.1378
     42 H10         4.6752    0.7768   -0.0359 H         1 <0>         0.1367
     43 H11         2.2661    0.3132   -0.0079 H         1 <0>         0.1497
     44 H12         0.2072    1.7600    2.2683 H         1 <0>         0.1496
     45 H13         0.4390    1.3191    4.6707 H         1 <0>         0.1367
     46 H14         0.5517   -0.9914    5.5083 H         1 <0>         0.1378
     47 H15         0.4268   -2.8832    3.9509 H         1 <0>         0.1451
     48 H16        -0.8013   -5.0300    0.2089 H         1 <0>         0.0887
     49 H17         0.9702   -5.0051    0.0370 H         1 <0>         0.0786
     50 H18         1.1807   -6.5240    1.9856 H         1 <0>         0.0994
     51 H19        -0.5908   -6.5490    2.1575 H         1 <0>         0.1295
     52 H20         0.9987  -10.2742   -0.4335 H         1 <0>         0.0679
     53 H21         0.2498  -11.1215    0.9411 H         1 <0>         0.1039
     54 H22        -0.7727  -10.2992   -0.2616 H         1 <0>         0.0722
@<TRIPOS>BOND
     1    1    2 1
     2    1   33 1
     3    1   34 1
     4    1   35 1
     5    2    3 1
     6    3    4 2
     7    3    5 1
     8    5    6 1
     9    5   36 1
    10    5   37 1
    11    6    7 1
    12    6   38 1
    13    6   39 1
    14    7    8 1
    15    8    9 2
    16    8   10 1
    17   10   15 ar
    18   10   11 ar
    19   11   12 ar
    20   11   40 1
    21   12   13 ar
    22   12   41 1
    23   13   14 ar
    24   13   42 1
    25   14   15 ar
    26   14   43 1
    27   15   16 1
    28   16   17 1
    29   17   18 1
    30   18   23 ar
    31   18   19 ar
    32   19   20 ar
    33   19   44 1
    34   20   21 ar
    35   20   45 1
    36   21   22 ar
    37   21   46 1
    38   22   23 ar
    39   22   47 1
    40   23   24 1
    41   24   25 2
    42   24   26 1
    43   26   27 1
    44   27   28 1
    45   27   48 1
    46   27   49 1
    47   28   29 1
    48   28   50 1
    49   28   51 1
    50   29   30 2
    51   29   31 1
    52   31   32 1
    53   32   52 1
    54   32   53 1
    55   32   54 1
@<TRIPOS>MOLECULE
ZINC09764906
   66    68     0     0     0
SMALL
USER_CHARGES
4-[bis(2-methoxyethyl)sulfamoyl]-N-[3-(2-methoxyethyl)-4-methyl-benzothiazol-2-ylidene]-benzamide
@<TRIPOS>ATOM
      1 C1          2.6798    0.1744   -0.2094 C.3       1 <0>        -0.1476
      2 C2          2.4538    1.6642   -0.1859 C.ar      1 <0>        -0.0736
      3 C3          3.5211    2.5107    0.0017 C.ar      1 <0>        -0.0824
      4 C4          3.3515    3.8845    0.0290 C.ar      1 <0>        -0.1096
      5 C5          2.0826    4.4124   -0.1353 C.ar      1 <0>        -0.0435
      6 C6          1.0151    3.5672   -0.3224 C.ar      1 <0>        -0.1813
      7 C7          1.1564    2.1719   -0.3552 C.ar      1 <0>         0.1159
      8 N1         -0.0193    1.4722   -0.5534 N.pl3     1 <0>        -0.4901
      9 C8         -1.1938    2.1415   -0.7044 C.2       1 <0>         0.4249
     10 N2         -2.4077    1.6404   -0.9068 N.2       1 <0>        -0.5961
     11 C9         -3.4565    2.4595   -1.0330 C.2       1 <0>         0.5297
     12 O1         -3.2993    3.6660   -0.9623 O.2       1 <0>        -0.5168
     13 C10        -4.8096    1.9008   -1.2587 C.ar      1 <0>        -0.0579
     14 C11        -4.9918    0.5207   -1.3458 C.ar      1 <0>        -0.0789
     15 C12        -6.2555    0.0061   -1.5508 C.ar      1 <0>        -0.0339
     16 C13        -7.3391    0.8565   -1.6805 C.ar      1 <0>        -0.6537
     17 C14        -7.1639    2.2265   -1.6008 C.ar      1 <0>        -0.0345
     18 C15        -5.9059    2.7530   -1.3907 C.ar      1 <0>        -0.0845
     19 S1         -8.9487    0.1919   -1.9490 S.o2      1 <0>         2.6832
     20 O2         -8.9303   -1.1348   -1.4404 O.2       1 <0>        -0.9505
     21 O3         -9.8732    1.1699   -1.4927 O.2       1 <0>        -0.9512
     22 N3         -9.1605    0.0681   -3.5867 N.pl3     1 <0>        -0.9808
     23 C16        -8.7738   -1.1607   -4.2845 C.3       1 <0>         0.1271
     24 C17        -9.9943   -2.0725   -4.4257 C.3       1 <0>         0.0398
     25 O4        -10.9616   -1.4463   -5.2708 O.3       1 <0>        -0.3849
     26 C18       -12.1471   -2.2190   -5.4694 C.3       1 <0>         0.0296
     27 C19        -9.7344    1.1873   -4.3378 C.3       1 <0>         0.1160
     28 C20        -8.6070    2.0448   -4.9163 C.3       1 <0>         0.0358
     29 O5         -7.8731    1.2820   -5.8763 O.3       1 <0>        -0.3805
     30 C21        -6.7913    1.9941   -6.4803 C.3       1 <0>         0.0299
     31 S2         -0.7267    3.8059   -0.5673 S.3       1 <0>         0.1562
     32 C22         0.0007    0.0083   -0.6070 C.3       1 <0>         0.0777
     33 C23        -0.1673   -0.5561    0.8052 C.3       1 <0>         0.0445
     34 O6         -0.1479   -1.9840    0.7529 O.3       1 <0>        -0.3834
     35 C24        -0.2983   -2.6143    2.0265 C.3       1 <0>         0.0318
     36 H1          2.7464   -0.1667   -1.2425 H         1 <0>         0.0800
     37 H2          3.6080   -0.0606    0.3114 H         1 <0>         0.0783
     38 H3          1.8483   -0.3270    0.2859 H         1 <0>         0.0889
     39 H4          4.5102    2.0962    0.1297 H         1 <0>         0.1393
     40 H5          4.1994    4.5367    0.1773 H         1 <0>         0.1432
     41 H6          1.9324    5.4818   -0.1167 H         1 <0>         0.1414
     42 H7         -4.1461   -0.1439   -1.2488 H         1 <0>         0.1486
     43 H8         -6.3984   -1.0625   -1.6147 H         1 <0>         0.1455
     44 H9         -8.0135    2.8853   -1.7035 H         1 <0>         0.1459
     45 H10        -5.7704    3.8226   -1.3290 H         1 <0>         0.1450
     46 H11        -8.3902   -0.9114   -5.2738 H         1 <0>         0.1062
     47 H12        -8.0004   -1.6746   -3.7137 H         1 <0>         0.0935
     48 H13        -9.6892   -3.0225   -4.8645 H         1 <0>         0.0623
     49 H14       -10.4310   -2.2499   -3.4429 H         1 <0>         0.0563
     50 H15       -11.8867   -3.1721   -5.9298 H         1 <0>         0.0410
     51 H16       -12.6285   -2.3994   -4.5082 H         1 <0>         0.0406
     52 H17       -12.8304   -1.6751   -6.1215 H         1 <0>         0.0859
     53 H18       -10.3510    0.8018   -5.1498 H         1 <0>         0.1112
     54 H19       -10.3480    1.7947   -3.6725 H         1 <0>         0.1070
     55 H20        -9.0312    2.9251   -5.3992 H         1 <0>         0.0634
     56 H21        -7.9394    2.3571   -4.1133 H         1 <0>         0.0478
     57 H22        -7.1779    2.8734   -6.9956 H         1 <0>         0.0412
     58 H23        -6.0861    2.3054   -5.7097 H         1 <0>         0.0386
     59 H24        -6.2849    1.3467   -7.1962 H         1 <0>         0.0855
     60 H25        -0.8153   -0.3433   -1.2383 H         1 <0>         0.1143
     61 H26         0.9513   -0.3271   -1.0216 H         1 <0>         0.1205
     62 H27         0.6487   -0.2044    1.4365 H         1 <0>         0.0588
     63 H28        -1.1180   -0.2206    1.2198 H         1 <0>         0.0610
     64 H29        -0.2731   -3.6968    1.9014 H         1 <0>         0.0935
     65 H30         0.5150   -2.3054    2.6831 H         1 <0>         0.0437
     66 H31        -1.2516   -2.3215    2.4664 H         1 <0>         0.0453
@<TRIPOS>BOND
     1    1    2 1
     2    1   36 1
     3    1   37 1
     4    1   38 1
     5    2    7 ar
     6    2    3 ar
     7    3    4 ar
     8    3   39 1
     9    4    5 ar
    10    4   40 1
    11    5    6 ar
    12    5   41 1
    13    6   31 1
    14    6    7 ar
    15    7    8 1
    16    8    9 1
    17    8   32 1
    18    9   10 2
    19    9   31 1
    20   10   11 1
    21   11   12 2
    22   11   13 1
    23   13   18 ar
    24   13   14 ar
    25   14   15 ar
    26   14   42 1
    27   15   16 ar
    28   15   43 1
    29   16   17 ar
    30   16   19 1
    31   17   18 ar
    32   17   44 1
    33   18   45 1
    34   19   20 2
    35   19   21 2
    36   19   22 1
    37   22   23 1
    38   22   27 1
    39   23   24 1
    40   23   46 1
    41   23   47 1
    42   24   25 1
    43   24   48 1
    44   24   49 1
    45   25   26 1
    46   26   50 1
    47   26   51 1
    48   26   52 1
    49   27   28 1
    50   27   53 1
    51   27   54 1
    52   28   29 1
    53   28   55 1
    54   28   56 1
    55   29   30 1
    56   30   57 1
    57   30   58 1
    58   30   59 1
    59   32   33 1
    60   32   60 1
    61   32   61 1
    62   33   34 1
    63   33   62 1
    64   33   63 1
    65   34   35 1
    66   35   64 1
    67   35   65 1
    68   35   66 1
@<TRIPOS>MOLECULE
ZINC22622980
   63    65     0     0     0
SMALL
USER_CHARGES
[2-(2-cyanoethyl-phenyl-amino)-2-oxo-ethyl] (E)-3-[4-[(3,5-dimethylisoxazol-4-yl)methoxy]-3-methoxy-phenyl]prop-2-enoate
@<TRIPOS>ATOM
      1 C1          1.7262   11.6308   -5.1300 C.3       1 <0>        -0.0813
      2 C2          1.6920   12.3023   -3.7813 C.2       1 <0>         0.0420
      3 C3          1.4833   11.6787   -2.5298 C.2       1 <0>        -0.2192
      4 C4          1.5374   12.7002   -1.6420 C.2       1 <0>         0.0065
      5 O1          1.7687   13.8112   -2.3554 O.3       1 <0>         0.1006
      6 N1          1.8485   13.5715   -3.5379 N.2       1 <0>        -0.3642
      7 C5          1.3724   12.6059   -0.1470 C.3       1 <0>        -0.0850
      8 C6          1.2484   10.2168   -2.2492 C.3       1 <0>         0.1381
      9 O2          2.5020    9.5658   -2.0331 O.3       1 <0>        -0.2931
     10 C7          2.4675    8.2347   -1.7656 C.ar      1 <0>         0.1256
     11 C8          1.2490    7.5705   -1.7126 C.ar      1 <0>        -0.1804
     12 C9          1.2075    6.2208   -1.4413 C.ar      1 <0>        -0.0818
     13 C10         2.3957    5.5153   -1.2186 C.ar      1 <0>        -0.0886
     14 C11         3.6231    6.1868   -1.2669 C.ar      1 <0>        -0.1411
     15 C12         3.6556    7.5390   -1.5444 C.ar      1 <0>         0.0975
     16 O3          4.8465    8.1937   -1.5968 O.3       1 <0>        -0.3035
     17 C13         6.0237    7.4190   -1.3603 C.3       1 <0>         0.0201
     18 C14         2.3545    4.0752   -0.9289 C.2       1 <0>         0.0211
     19 C15         1.1685    3.4302   -0.8773 C.2       1 <0>        -0.2186
     20 C16         1.1288    2.0408   -0.5979 C.2       1 <0>         0.5080
     21 O4          2.1625    1.4294   -0.4046 O.2       1 <0>        -0.5137
     22 O5         -0.0557    1.3966   -0.5463 O.3       1 <0>        -0.3264
     23 C17        -0.0212   -0.0029   -0.2598 C.3       1 <0>         0.0457
     24 C18        -1.4264   -0.5471   -0.2433 C.2       1 <0>         0.5206
     25 O6         -2.3651    0.1909   -0.4559 O.2       1 <0>        -0.4887
     26 N2         -1.6400   -1.8540    0.0078 N.am      1 <0>        -0.5676
     27 C19        -0.5036   -2.7660    0.1597 C.3       1 <0>         0.1062
     28 C20        -0.0824   -2.8154    1.6298 C.3       1 <0>        -0.0497
     29 C21         1.0594   -3.7318    1.7825 C.1       1 <0>         0.2021
     30 N3          1.9406   -4.4390    1.9003 N.1       1 <0>        -0.4168
     31 C22        -2.9472   -2.3396    0.1233 C.ar      1 <0>         0.1343
     32 C23        -3.7383   -1.9591    1.1993 C.ar      1 <0>        -0.1056
     33 C24        -5.0301   -2.4357    1.3073 C.ar      1 <0>        -0.1078
     34 C25        -5.5322   -3.2996    0.3513 C.ar      1 <0>        -0.1143
     35 C26        -4.7448   -3.6853   -0.7180 C.ar      1 <0>        -0.1087
     36 C27        -3.4542   -3.2077   -0.8349 C.ar      1 <0>        -0.1161
     37 H1          1.5612   10.5503   -5.0059 H         1 <0>         0.0810
     38 H2          2.7065   11.8005   -5.5993 H         1 <0>         0.0834
     39 H3          0.9359   12.0514   -5.7691 H         1 <0>         0.0824
     40 H4          1.4688   13.6079    0.2964 H         1 <0>         0.0893
     41 H5          2.1488   11.9456    0.2666 H         1 <0>         0.0971
     42 H6          0.3791   12.1954    0.0871 H         1 <0>         0.0948
     43 H7          0.6212   10.1119   -1.3516 H         1 <0>         0.0806
     44 H8          0.7391    9.7557   -3.1083 H         1 <0>         0.0810
     45 H9          0.3316    8.1139   -1.8843 H         1 <0>         0.1421
     46 H10         0.2584    5.7070   -1.4001 H         1 <0>         0.1383
     47 H11         4.5424    5.6478   -1.0910 H         1 <0>         0.1432
     48 H12         6.9096    8.0671   -1.4319 H         1 <0>         0.1048
     49 H13         6.0931    6.6187   -2.1118 H         1 <0>         0.0579
     50 H14         5.9746    6.9749   -0.3551 H         1 <0>         0.0579
     51 H15         3.2893    3.5224   -0.7541 H         1 <0>         0.1440
     52 H16         0.2337    3.9830   -1.0521 H         1 <0>         0.1479
     53 H17         0.5637   -0.5213   -1.0339 H         1 <0>         0.1048
     54 H18         0.4462   -0.1646    0.7227 H         1 <0>         0.1048
     55 H19        -0.7950   -3.7734   -0.1723 H         1 <0>         0.1031
     56 H20         0.3382   -2.4078   -0.4511 H         1 <0>         0.0979
     57 H21         0.2090   -1.8080    1.9618 H         1 <0>         0.1130
     58 H22        -0.9242   -3.1735    2.2406 H         1 <0>         0.1204
     59 H23        -3.3453   -1.2880    1.9486 H         1 <0>         0.1246
     60 H24        -5.6473   -2.1369    2.1417 H         1 <0>         0.1285
     61 H25        -6.5412   -3.6741    0.4403 H         1 <0>         0.1266
     62 H26        -5.1397   -4.3604   -1.4628 H         1 <0>         0.1284
     63 H27        -2.8397   -3.5093   -1.6703 H         1 <0>         0.1262
@<TRIPOS>BOND
     1    1    2 1
     2    1   37 1
     3    1   38 1
     4    1   39 1
     5    2    6 2
     6    2    3 1
     7    3    4 2
     8    3    8 1
     9    4    5 1
    10    4    7 1
    11    5    6 1
    12    7   40 1
    13    7   41 1
    14    7   42 1
    15    8    9 1
    16    8   43 1
    17    8   44 1
    18    9   10 1
    19   10   15 ar
    20   10   11 ar
    21   11   12 ar
    22   11   45 1
    23   12   13 ar
    24   12   46 1
    25   13   14 ar
    26   13   18 1
    27   14   15 ar
    28   14   47 1
    29   15   16 1
    30   16   17 1
    31   17   48 1
    32   17   49 1
    33   17   50 1
    34   18   19 2
    35   18   51 1
    36   19   20 1
    37   19   52 1
    38   20   21 2
    39   20   22 1
    40   22   23 1
    41   23   24 1
    42   23   53 1
    43   23   54 1
    44   24   25 2
    45   24   26 am
    46   26   27 1
    47   26   31 1
    48   27   28 1
    49   27   55 1
    50   27   56 1
    51   28   29 1
    52   28   57 1
    53   28   58 1
    54   29   30 3
    55   31   36 ar
    56   31   32 ar
    57   32   33 ar
    58   32   59 1
    59   33   34 ar
    60   33   60 1
    61   34   35 ar
    62   34   61 1
    63   35   36 ar
    64   35   62 1
    65   36   63 1
@<TRIPOS>MOLECULE
ZINC35115094
   61    63     0     0     0
SMALL
USER_CHARGES

@<TRIPOS>ATOM
      1 C1         -0.5793    1.6075    0.3112 C.3       1 <0>        -0.1496
      2 C2         -0.2546    0.1152    0.2178 C.3       1 <0>         0.1852
      3 H1         -1.1170   -0.4654    0.5452 H         1 <0>         0.1299
      4 C3          0.9263   -0.1981    1.1001 C.2       1 <0>         0.3886
      5 N1          1.6729    0.7852    1.5019 N.2       1 <0>        -0.5029
      6 C4          2.7522    0.5795    2.2976 C.ar      1 <0>         0.1494
      7 C5          3.5553    1.6366    2.7306 C.ar      1 <0>        -0.1078
      8 C6          4.6410    1.3818    3.5378 C.ar      1 <0>        -0.0764
      9 C7          4.9486    0.0849    3.9281 C.ar      1 <0>        -0.1358
     10 C8          4.1714   -0.9745    3.5139 C.ar      1 <0>        -0.0409
     11 C9          3.0680   -0.7381    2.6965 C.ar      1 <0>        -0.1876
     12 C10         2.2022   -1.8286    2.2240 C.2       1 <0>         0.5498
     13 O1          2.4188   -2.9864    2.5312 O.2       1 <0>        -0.4795
     14 N2          1.1518   -1.4943    1.4386 N.am      1 <0>        -0.5340
     15 C11         0.2530   -2.5405    0.9445 C.3       1 <0>         0.0748
     16 C12         0.8378   -3.1557   -0.3284 C.3       1 <0>         0.0227
     17 O2          2.0610   -3.8250   -0.0156 O.3       1 <0>        -0.3629
     18 C13         2.6926   -4.4379   -1.1414 C.3       1 <0>         0.0293
     19 N3          0.0675   -0.2285   -1.1694 N.pl3     1 <0>        -0.9913
     20 C14         1.2768    0.3111   -1.7960 C.3       1 <0>         0.1223
     21 C15         2.4641   -0.6017   -1.4829 C.3       1 <0>        -0.1503
     22 C16         3.7489    0.0292   -2.0236 C.3       1 <0>         0.0678
     23 O3          4.8578   -0.8233   -1.7311 O.3       1 <0>        -0.3869
     24 C17         6.1134   -0.3238   -2.1959 C.3       1 <0>         0.0324
     25 S1         -0.9355   -1.2271   -2.0293 S.o2      1 <0>         2.6800
     26 O4         -0.1178   -1.9159   -2.9653 O.2       1 <0>        -0.9373
     27 O5         -1.7440   -1.9069   -1.0788 O.2       1 <0>        -0.9476
     28 C18        -2.0167   -0.1985   -2.9661 C.ar      1 <0>        -0.6786
     29 C19        -3.2198    0.2138   -2.4244 C.ar      1 <0>        -0.0052
     30 C20        -4.0683    1.0207   -3.1587 C.ar      1 <0>        -0.1288
     31 C21        -3.7133    1.4157   -4.4362 C.ar      1 <0>         0.0208
     32 C22        -2.5091    1.0028   -4.9779 C.ar      1 <0>        -0.1291
     33 C23        -1.6588    0.2006   -4.2404 C.ar      1 <0>        -0.0068
     34 Cl1        -4.7788    2.4287   -5.3595 Cl        1 <0>        -0.0477
     35 H2          0.3103    2.1888    0.0687 H         1 <0>         0.0858
     36 H3         -1.3753    1.8509   -0.3926 H         1 <0>         0.0679
     37 H4         -0.9042    1.8459    1.3239 H         1 <0>         0.0792
     38 H5          3.3261    2.6493    2.4333 H         1 <0>         0.1382
     39 H6          5.2613    2.2004    3.8715 H         1 <0>         0.1332
     40 H7          5.8048   -0.0947    4.5614 H         1 <0>         0.1326
     41 H8          4.4157   -1.9809    3.8203 H         1 <0>         0.1371
     42 H9          0.1432   -3.3139    1.7046 H         1 <0>         0.1129
     43 H10        -0.7224   -2.1070    0.7236 H         1 <0>         0.1274
     44 H11         0.1286   -3.8709   -0.7452 H         1 <0>         0.0714
     45 H12         1.0304   -2.3684   -1.0572 H         1 <0>         0.0535
     46 H13         2.0219   -5.1797   -1.5750 H         1 <0>         0.0417
     47 H14         2.9238   -3.6771   -1.8870 H         1 <0>         0.0441
     48 H15         3.6139   -4.9243   -0.8209 H         1 <0>         0.0877
     49 H16         1.1341    0.3642   -2.8753 H         1 <0>         0.0890
     50 H17         1.4734    1.3097   -1.4059 H         1 <0>         0.1004
     51 H18         2.5488   -0.7304   -0.4038 H         1 <0>         0.0767
     52 H19         2.3101   -1.5726   -1.9537 H         1 <0>         0.0838
     53 H20         3.6642    0.1579   -3.1026 H         1 <0>         0.0521
     54 H21         3.9029    1.0001   -1.5528 H         1 <0>         0.0515
     55 H22         6.0778   -0.2023   -3.2786 H         1 <0>         0.0417
     56 H23         6.3165    0.6399   -1.7287 H         1 <0>         0.0412
     57 H24         6.9036   -1.0278   -1.9351 H         1 <0>         0.0866
     58 H25        -3.4970   -0.0950   -1.4272 H         1 <0>         0.1521
     59 H26        -5.0084    1.3424   -2.7355 H         1 <0>         0.1482
     60 H27        -2.2316    1.3106   -5.9752 H         1 <0>         0.1476
     61 H28        -0.7166   -0.1179   -4.6612 H         1 <0>         0.1503
@<TRIPOS>BOND
     1    1    2 1
     2    1   35 1
     3    1   36 1
     4    1   37 1
     5    2    3 1
     6    2    4 1
     7    2   19 1
     8    4   14 1
     9    4    5 2
    10    5    6 1
    11    6   11 ar
    12    6    7 ar
    13    7    8 ar
    14    7   38 1
    15    8    9 ar
    16    8   39 1
    17    9   10 ar
    18    9   40 1
    19   10   11 ar
    20   10   41 1
    21   11   12 1
    22   12   13 2
    23   12   14 am
    24   14   15 1
    25   15   16 1
    26   15   42 1
    27   15   43 1
    28   16   17 1
    29   16   44 1
    30   16   45 1
    31   17   18 1
    32   18   46 1
    33   18   47 1
    34   18   48 1
    35   19   20 1
    36   19   25 1
    37   20   21 1
    38   20   49 1
    39   20   50 1
    40   21   22 1
    41   21   51 1
    42   21   52 1
    43   22   23 1
    44   22   53 1
    45   22   54 1
    46   23   24 1
    47   24   55 1
    48   24   56 1
    49   24   57 1
    50   25   26 2
    51   25   27 2
    52   25   28 1
    53   28   33 ar
    54   28   29 ar
    55   29   30 ar
    56   29   58 1
    57   30   31 ar
    58   30   59 1
    59   31   32 ar
    60   31   34 1
    61   32   33 ar
    62   32   60 1
    63   33   61 1
@<TRIPOS>MOLECULE
ZINC40384486
   61    63     0     0     0
SMALL
USER_CHARGES

@<TRIPOS>ATOM
      1 C1          3.2998    1.3582   -0.4876 C.3       1 <0>        -0.1655
      2 C2          1.7830    1.2186   -0.6315 C.3       1 <0>         0.0878
      3 N1          1.4774    0.0673   -1.4843 N.pl3     1 <0>        -0.4016
      4 C3          1.3448    0.1033   -2.8182 C.2       1 <0>         0.1126
      5 C4          1.0573   -1.1779   -3.2633 C.2       1 <0>        -0.2624
      6 C5          1.0193   -2.0133   -2.1216 C.2       1 <0>        -0.0137
      7 C6          1.2865   -1.2247   -1.0421 C.2       1 <0>        -0.0508
      8 C7          1.3553   -1.6734    0.3526 C.2       1 <0>         0.5349
      9 O1          1.1685   -2.8438    0.6246 O.2       1 <0>        -0.4903
     10 O2          1.6258   -0.7880    1.3333 O.3       1 <0>        -0.3576
     11 C8          1.6774   -1.2945    2.6685 C.3       1 <0>         0.0342
     12 C9          0.7425   -3.4946   -2.1033 C.3       1 <0>        -0.0981
     13 C10         0.8341   -1.5890   -4.6529 C.2       1 <0>         0.4270
     14 O3         -0.2947   -1.6515   -5.0932 O.2       1 <0>        -0.4301
     15 C11         2.0068   -1.9338   -5.5343 C.3       1 <0>         0.0750
     16 N2          1.5341   -2.1941   -6.8963 N.am      1 <0>        -0.5979
     17 C12         1.4443   -1.0967   -7.8627 C.3       1 <0>         0.1881
     18 C13         2.7483   -0.9760   -8.6084 C.2       1 <0>        -0.0452
     19 C14         3.0591   -1.6046   -9.7563 C.2       1 <0>        -0.1925
     20 C15         4.3718   -1.2066  -10.0988 C.2       1 <0>        -0.2127
     21 C16         4.7847   -0.3586   -9.1397 C.2       1 <0>        -0.0267
     22 O4          3.7951   -0.2182   -8.2427 O.3       1 <0>        -0.1700
     23 C17         1.1819   -3.4430   -7.2603 C.2       1 <0>         0.5274
     24 O5          1.2562   -4.3515   -6.4603 O.2       1 <0>        -0.4980
     25 C18         0.6957   -3.7107   -8.6614 C.3       1 <0>         0.0359
     26 O6          0.3864   -5.0988   -8.8012 O.3       1 <0>        -0.2838
     27 C19        -0.0689   -5.5104  -10.0139 C.ar      1 <0>         0.1348
     28 C20        -0.2094   -4.5979  -11.0493 C.ar      1 <0>        -0.2004
     29 C21        -0.6724   -5.0182  -12.2811 C.ar      1 <0>        -0.0672
     30 C22        -0.9963   -6.3483  -12.4824 C.ar      1 <0>        -0.0725
     31 C23        -0.8572   -7.2599  -11.4508 C.ar      1 <0>        -0.0674
     32 C24        -0.3883   -6.8447  -10.2195 C.ar      1 <0>        -0.1335
     33 Cl1        -1.5784   -6.8739  -14.0312 Cl        1 <0>        -0.0681
     34 C25         1.4842    1.3278   -3.6855 C.3       1 <0>        -0.0991
     35 H1          3.7068    0.4534   -0.0361 H         1 <0>         0.0658
     36 H2          3.7461    1.5059   -1.4710 H         1 <0>         0.0624
     37 H3          3.5273    2.2148    0.1469 H         1 <0>         0.0801
     38 H4          1.3368    1.0710    0.3519 H         1 <0>         0.1096
     39 H5          1.3761    2.1234   -1.0830 H         1 <0>         0.0956
     40 H6          1.9029   -0.4804    3.3574 H         1 <0>         0.1036
     41 H7          0.7142   -1.7337    2.9280 H         1 <0>         0.0628
     42 H8          2.4545   -2.0556    2.7386 H         1 <0>         0.0631
     43 H9          1.6859   -4.0406   -2.1052 H         1 <0>         0.0779
     44 H10         0.1781   -3.7477   -1.2058 H         1 <0>         0.0836
     45 H11         0.1633   -3.7669   -2.9856 H         1 <0>         0.0683
     46 H12         2.7095   -1.1007   -5.5465 H         1 <0>         0.1175
     47 H13         2.5039   -2.8228   -5.1462 H         1 <0>         0.1255
     48 H14         0.6393   -1.2995   -8.5690 H         1 <0>         0.1149
     49 H15         1.2394   -0.1646   -7.3360 H         1 <0>         0.1051
     50 H16         2.4274   -2.2836  -10.3098 H         1 <0>         0.1470
     51 H17         4.9351   -1.5230  -10.9642 H         1 <0>         0.1515
     52 H18         5.7472    0.1296   -9.1000 H         1 <0>         0.2058
     53 H19        -0.1983   -3.1179   -8.8552 H         1 <0>         0.0984
     54 H20         1.4739   -3.4382   -9.3743 H         1 <0>         0.0977
     55 H21         0.0426   -3.5596  -10.8923 H         1 <0>         0.1353
     56 H22        -0.7820   -4.3081  -13.0874 H         1 <0>         0.1379
     57 H23        -1.1109   -8.2976  -11.6098 H         1 <0>         0.1427
     58 H24        -0.2753   -7.5573   -9.4160 H         1 <0>         0.1440
     59 H25         2.5225    1.4343   -3.9995 H         1 <0>         0.0876
     60 H26         0.8476    1.2249   -4.5643 H         1 <0>         0.0855
     61 H27         1.1833    2.2097   -3.1201 H         1 <0>         0.0780
@<TRIPOS>BOND
     1    1    2 1
     2    1   35 1
     3    1   36 1
     4    1   37 1
     5    2    3 1
     6    2   38 1
     7    2   39 1
     8    3    7 1
     9    3    4 1
    10    4    5 2
    11    4   34 1
    12    5    6 1
    13    5   13 1
    14    6    7 2
    15    6   12 1
    16    7    8 1
    17    8    9 2
    18    8   10 1
    19   10   11 1
    20   11   40 1
    21   11   41 1
    22   11   42 1
    23   12   43 1
    24   12   44 1
    25   12   45 1
    26   13   14 2
    27   13   15 1
    28   15   16 1
    29   15   46 1
    30   15   47 1
    31   16   17 1
    32   16   23 am
    33   17   18 1
    34   17   48 1
    35   17   49 1
    36   18   22 1
    37   18   19 2
    38   19   20 1
    39   19   50 1
    40   20   21 2
    41   20   51 1
    42   21   22 1
    43   21   52 1
    44   23   24 2
    45   23   25 1
    46   25   26 1
    47   25   53 1
    48   25   54 1
    49   26   27 1
    50   27   32 ar
    51   27   28 ar
    52   28   29 ar
    53   28   55 1
    54   29   30 ar
    55   29   56 1
    56   30   31 ar
    57   30   33 1
    58   31   32 ar
    59   31   57 1
    60   32   58 1
    61   34   59 1
    62   34   60 1
    63   34   61 1
@<TRIPOS>MOLECULE
ZINC01917912
   49    51     0     0     0
SMALL
USER_CHARGES
N-[3-[(2-chlorophenyl)methylsulfanyl]-1,2,4-triazol-4-yl]-1-(3-methoxy-4-propoxy-phenyl)-methanimine
@<TRIPOS>ATOM
      1 C1         -9.1027   -5.4216    0.0628 C.3       1 <0>        -0.1510
      2 C2         -7.7183   -6.0728    0.0455 C.3       1 <0>        -0.1235
      3 C3         -6.6429   -4.9845    0.0406 C.3       1 <0>         0.0537
      4 O1         -5.3498   -5.5927    0.0245 O.3       1 <0>        -0.2989
      5 C4         -4.2761   -4.7595    0.0183 C.ar      1 <0>         0.1393
      6 C5         -4.4666   -3.3851    0.0280 C.ar      1 <0>        -0.1840
      7 C6         -3.3809   -2.5354    0.0266 C.ar      1 <0>        -0.0553
      8 C7         -2.0850   -3.0578    0.0055 C.ar      1 <0>        -0.0805
      9 C8         -1.8936   -4.4420   -0.0037 C.ar      1 <0>        -0.1316
     10 C9         -2.9868   -5.2876    0.0027 C.ar      1 <0>         0.0945
     11 O2         -2.8041   -6.6352   -0.0068 O.3       1 <0>        -0.3020
     12 C10        -1.4553   -7.1069   -0.0231 C.3       1 <0>         0.0229
     13 C11        -0.9229   -2.1511   -0.0007 C.2       1 <0>         0.1802
     14 N1         -1.1025   -0.8658    0.0079 N.2       1 <0>        -0.2509
     15 N2          0.0021   -0.0041    0.0020 N.pl3     1 <0>        -0.3304
     16 C12         1.3259   -0.3553   -0.0125 C.2       1 <0>         0.1232
     17 N3          2.0199    0.7485   -0.0132 N.2       1 <0>        -0.2641
     18 N4          1.2343    1.7654   -0.0002 N.2       1 <0>        -0.2889
     19 C13        -0.0165    1.3645    0.0095 C.2       1 <0>         0.1959
     20 S1         -1.4469    2.3934    0.0222 S.3       1 <0>         0.0501
     21 C14        -0.6612    4.0239    0.0272 C.3       1 <0>        -0.0797
     22 C15        -1.7231    5.0932    0.0382 C.ar      1 <0>        -0.0752
     23 C16        -2.2120    5.5943   -1.1537 C.ar      1 <0>        -0.0868
     24 C17        -3.1890    6.5719   -1.1438 C.ar      1 <0>        -0.1140
     25 C18        -3.6711    7.0561    0.0582 C.ar      1 <0>        -0.0973
     26 C19        -3.1793    6.5597    1.2505 C.ar      1 <0>        -0.1101
     27 C20        -2.2046    5.5775    1.2412 C.ar      1 <0>        -0.0192
     28 Cl1        -1.5860    4.9538    2.7385 Cl        1 <0>        -0.0565
     29 H1         -9.8689   -6.1969    0.0663 H         1 <0>         0.0663
     30 H2         -9.2039   -4.8067    0.9571 H         1 <0>         0.0583
     31 H3         -9.2216   -4.7973   -0.8228 H         1 <0>         0.0583
     32 H4         -7.6171   -6.6877   -0.8488 H         1 <0>         0.0750
     33 H5         -7.5994   -6.6971    0.9311 H         1 <0>         0.0750
     34 H6         -6.7441   -4.3697    0.9349 H         1 <0>         0.0659
     35 H7         -6.7618   -4.3602   -0.8449 H         1 <0>         0.0659
     36 H8         -5.4676   -2.9801    0.0408 H         1 <0>         0.1441
     37 H9         -3.5319   -1.4660    0.0379 H         1 <0>         0.1420
     38 H10        -0.8937   -4.8501   -0.0162 H         1 <0>         0.1448
     39 H11        -0.9518   -6.7368   -0.9162 H         1 <0>         0.0570
     40 H12        -0.9337   -6.7468    0.8636 H         1 <0>         0.0570
     41 H13        -1.4516   -8.1969   -0.0293 H         1 <0>         0.1043
     42 H14         0.0782   -2.5564   -0.0124 H         1 <0>         0.1332
     43 H15         1.7216   -1.3602   -0.0222 H         1 <0>         0.2232
     44 H16        -0.0362    4.1234    0.9146 H         1 <0>         0.1134
     45 H17        -0.0449    4.1331   -0.8653 H         1 <0>         0.1121
     46 H18        -1.8329    5.2194   -2.0930 H         1 <0>         0.1370
     47 H19        -3.5732    6.9607   -2.0753 H         1 <0>         0.1341
     48 H20        -4.4318    7.8226    0.0654 H         1 <0>         0.1357
     49 H21        -3.5554    6.9384    2.1894 H         1 <0>         0.1378
@<TRIPOS>BOND
     1    1    2 1
     2    1   29 1
     3    1   30 1
     4    1   31 1
     5    2    3 1
     6    2   32 1
     7    2   33 1
     8    3    4 1
     9    3   34 1
    10    3   35 1
    11    4    5 1
    12    5   10 ar
    13    5    6 ar
    14    6    7 ar
    15    6   36 1
    16    7    8 ar
    17    7   37 1
    18    8    9 ar
    19    8   13 1
    20    9   10 ar
    21    9   38 1
    22   10   11 1
    23   11   12 1
    24   12   39 1
    25   12   40 1
    26   12   41 1
    27   13   14 2
    28   13   42 1
    29   14   15 1
    30   15   19 1
    31   15   16 1
    32   16   17 2
    33   16   43 1
    34   17   18 1
    35   18   19 2
    36   19   20 1
    37   20   21 1
    38   21   22 1
    39   21   44 1
    40   21   45 1
    41   22   27 ar
    42   22   23 ar
    43   23   24 ar
    44   23   46 1
    45   24   25 ar
    46   24   47 1
    47   25   26 ar
    48   25   48 1
    49   26   27 ar
    50   26   49 1
    51   27   28 1
@<TRIPOS>MOLECULE
ZINC11132589
   58    61     0     0     0
SMALL
USER_CHARGES
2-[7-chloro-4-oxo-3-(tetrahydrofuran-2-ylmethyl)quinazolin-2-yl]sulfanyl-N-(cyclopropylmethyl)-N-propyl-acetamide
@<TRIPOS>ATOM
      1 C1         -1.2490    5.6732   -1.4037 C.3       1 <0>        -0.1502
      2 C2         -1.2282    4.1433   -1.4121 C.3       1 <0>        -0.1392
      3 C3         -1.2145    3.6256    0.0275 C.3       1 <0>         0.1146
      4 N1         -1.1946    2.1607    0.0195 N.am      1 <0>        -0.6024
      5 C4         -2.4532    1.4111    0.0214 C.3       1 <0>         0.1353
      6 C5         -2.8846    1.1422    1.4645 C.3       1 <0>        -0.1804
      7 C6         -2.9509   -0.3163    1.9219 C.3       1 <0>        -0.1785
      8 C7         -4.2415    0.4699    1.6826 C.3       1 <0>        -0.1696
      9 C8         -0.0184    1.5028    0.0103 C.2       1 <0>         0.5361
     10 O1          1.0236    2.1234    0.0037 O.2       1 <0>        -0.5227
     11 C9          0.0021   -0.0041    0.0020 C.3       1 <0>        -0.1612
     12 S1          1.7165   -0.5841   -0.0175 S.3       1 <0>         0.1166
     13 C10         1.4502   -2.3258   -0.0243 C.2       1 <0>         0.3742
     14 N2          0.2172   -2.7694   -0.0149 N.2       1 <0>        -0.5429
     15 C11        -0.0581   -4.0947   -0.0198 C.ar      1 <0>         0.1906
     16 C12        -1.3725   -4.5694   -0.0094 C.ar      1 <0>        -0.1113
     17 C13        -1.6042   -5.9275   -0.0145 C.ar      1 <0>         0.0158
     18 C14        -0.5464   -6.8300   -0.0303 C.ar      1 <0>        -0.1395
     19 C15         0.7475   -6.3895   -0.0412 C.ar      1 <0>        -0.0194
     20 C16         1.0105   -5.0202   -0.0355 C.ar      1 <0>        -0.2056
     21 C17         2.3822   -4.4949   -0.0457 C.2       1 <0>         0.5572
     22 O2          3.3436   -5.2416   -0.0593 O.2       1 <0>        -0.5032
     23 N3          2.5383   -3.1508   -0.0447 N.am      1 <0>        -0.5227
     24 C18         3.8856   -2.5759   -0.0603 C.3       1 <0>         0.0902
     25 C19         4.3751   -2.3845    1.3766 C.3       1 <0>         0.0626
     26 H1          4.4132   -3.3434    1.8935 H         1 <0>         0.0799
     27 C20         5.7706   -1.7112    1.3842 C.3       1 <0>        -0.1463
     28 C21         5.7707   -1.0489    2.7889 C.3       1 <0>        -0.1541
     29 C22         4.2882   -0.6565    2.9662 C.3       1 <0>         0.0511
     30 O3          3.5152   -1.4732    2.0791 O.3       1 <0>        -0.3656
     31 Cl1        -3.2362   -6.5191   -0.0015 Cl        1 <0>        -0.0529
     32 H2         -2.1414    6.0216   -0.8838 H         1 <0>         0.0557
     33 H3         -0.3616    6.0458   -0.8921 H         1 <0>         0.0574
     34 H4         -1.2588    6.0421   -2.4294 H         1 <0>         0.0583
     35 H5         -0.3358    3.7949   -1.9321 H         1 <0>         0.0669
     36 H6         -2.1156    3.7707   -1.9238 H         1 <0>         0.0629
     37 H7         -2.1068    3.9740    0.5475 H         1 <0>         0.0806
     38 H8         -0.3271    3.9982    0.5392 H         1 <0>         0.0866
     39 H9         -3.2232    1.9925   -0.4857 H         1 <0>         0.0893
     40 H10        -2.3124    0.4633   -0.4983 H         1 <0>         0.0847
     41 H11        -2.5678    1.8856    2.1960 H         1 <0>         0.1086
     42 H12        -2.6873   -1.0843    1.1948 H         1 <0>         0.0999
     43 H13        -2.6776   -0.5327    2.9547 H         1 <0>         0.0948
     44 H14        -4.8173    0.7707    2.5580 H         1 <0>         0.0965
     45 H15        -4.8269    0.2191    0.7981 H         1 <0>         0.0974
     46 H16        -0.4983   -0.3791    0.8948 H         1 <0>         0.1332
     47 H17        -0.5153   -0.3696   -0.8850 H         1 <0>         0.1257
     48 H18        -2.2008   -3.8765    0.0030 H         1 <0>         0.1487
     49 H19        -0.7494   -7.8908   -0.0344 H         1 <0>         0.1439
     50 H20         1.5620   -7.0985   -0.0542 H         1 <0>         0.1470
     51 H21         4.5617   -3.2488   -0.5879 H         1 <0>         0.1201
     52 H22         3.8634   -1.6116   -0.5680 H         1 <0>         0.1057
     53 H23         6.5650   -2.4528    1.2994 H         1 <0>         0.0886
     54 H24         5.8496   -0.9619    0.5965 H         1 <0>         0.0857
     55 H25         6.4099   -0.1660    2.8014 H         1 <0>         0.0858
     56 H26         6.0784   -1.7593    3.5562 H         1 <0>         0.0772
     57 H27         4.1513    0.3951    2.7143 H         1 <0>         0.0750
     58 H28         3.9792   -0.8344    3.9963 H         1 <0>         0.0677
@<TRIPOS>BOND
     1    1    2 1
     2    1   32 1
     3    1   33 1
     4    1   34 1
     5    2    3 1
     6    2   35 1
     7    2   36 1
     8    3    4 1
     9    3   37 1
    10    3   38 1
    11    4    5 1
    12    4    9 am
    13    5    6 1
    14    5   39 1
    15    5   40 1
    16    6    8 1
    17    6    7 1
    18    6   41 1
    19    7    8 1
    20    7   42 1
    21    7   43 1
    22    8   44 1
    23    8   45 1
    24    9   10 2
    25    9   11 1
    26   11   12 1
    27   11   46 1
    28   11   47 1
    29   12   13 1
    30   13   23 1
    31   13   14 2
    32   14   15 1
    33   15   20 ar
    34   15   16 ar
    35   16   17 ar
    36   16   48 1
    37   17   18 ar
    38   17   31 1
    39   18   19 ar
    40   18   49 1
    41   19   20 ar
    42   19   50 1
    43   20   21 1
    44   21   22 2
    45   21   23 am
    46   23   24 1
    47   24   25 1
    48   24   51 1
    49   24   52 1
    50   25   26 1
    51   25   30 1
    52   25   27 1
    53   27   28 1
    54   27   53 1
    55   27   54 1
    56   28   29 1
    57   28   55 1
    58   28   56 1
    59   29   30 1
    60   29   57 1
    61   29   58 1
@<TRIPOS>MOLECULE
ZINC18972807
   58    60     0     0     0
SMALL
USER_CHARGES
2-[[5-(2-methoxyphenyl)-4-methyl-1,2,4-triazol-3-yl]sulfanyl]-N-propyl-N-(p-tolylmethyl)acetamide
@<TRIPOS>ATOM
      1 C1         -2.3327   -8.7815   -1.9137 C.3       1 <0>        -0.1521
      2 C2         -0.8296   -8.9177   -2.1648 C.3       1 <0>        -0.1429
      3 C3         -0.1159   -9.2075   -0.8429 C.3       1 <0>         0.1019
      4 N1          1.3233   -9.3379   -1.0833 N.am      1 <0>        -0.5992
      5 C4          1.8976  -10.6484   -1.3981 C.3       1 <0>         0.1572
      6 C5          2.3040  -11.3385   -0.1215 C.ar      1 <0>        -0.1177
      7 C6          3.5793  -11.1642    0.3826 C.ar      1 <0>        -0.0899
      8 C7          3.9507  -11.7938    1.5559 C.ar      1 <0>        -0.1238
      9 C8          3.0499  -12.6052    2.2200 C.ar      1 <0>        -0.0799
     10 C9          1.7761  -12.7832    1.7133 C.ar      1 <0>        -0.1252
     11 C10         1.4033  -12.1502    0.5423 C.ar      1 <0>        -0.1016
     12 C11         3.4563  -13.2952    3.4966 C.3       1 <0>        -0.1175
     13 C12         2.1190   -8.2522   -1.0149 C.2       1 <0>         0.5376
     14 O1          3.3105   -8.3602   -1.2139 O.2       1 <0>        -0.5212
     15 C13         1.5283   -6.9042   -0.6911 C.3       1 <0>        -0.1448
     16 S1          2.8413   -5.6586   -0.6731 S.3       1 <0>         0.0788
     17 C14         1.8967   -4.2239   -0.2807 C.2       1 <0>         0.1400
     18 N2          0.5998   -4.1767   -0.0758 N.2       1 <0>        -0.2929
     19 N3          0.2390   -2.9732    0.1943 N.2       1 <0>        -0.2532
     20 C15         1.2819   -2.1761    0.1689 C.2       1 <0>         0.2370
     21 N4          2.3765   -2.9532   -0.1323 N.pl3     1 <0>        -0.4593
     22 C16         3.7667   -2.5106   -0.2657 C.3       1 <0>         0.0694
     23 C17         1.2811   -0.7203    0.4224 C.ar      1 <0>        -0.0596
     24 C18         2.2252   -0.1576    1.2821 C.ar      1 <0>        -0.0581
     25 C19         2.2192    1.2021    1.5151 C.ar      1 <0>        -0.1563
     26 C20         1.2800    2.0112    0.8994 C.ar      1 <0>        -0.0593
     27 C21         0.3398    1.4652    0.0459 C.ar      1 <0>        -0.2097
     28 C22         0.3327    0.1016   -0.1985 C.ar      1 <0>         0.1717
     29 O2         -0.5911   -0.4360   -1.0367 O.3       1 <0>        -0.2971
     30 C23        -1.5273    0.4638   -1.6334 C.3       1 <0>         0.0243
     31 H1         -2.8412   -8.5750   -2.8555 H         1 <0>         0.0597
     32 H2         -2.7159   -9.7098   -1.4898 H         1 <0>         0.0569
     33 H3         -2.5120   -7.9627   -1.2169 H         1 <0>         0.0596
     34 H4         -0.4465   -7.9894   -2.5886 H         1 <0>         0.0655
     35 H5         -0.6504   -9.7365   -2.8616 H         1 <0>         0.0682
     36 H6         -0.4990  -10.1358   -0.4190 H         1 <0>         0.0853
     37 H7         -0.2952   -8.3887   -0.1460 H         1 <0>         0.0839
     38 H8          1.1561  -11.2545   -1.9186 H         1 <0>         0.0891
     39 H9          2.7725  -10.5181   -2.0351 H         1 <0>         0.0952
     40 H10         4.2845  -10.5336   -0.1384 H         1 <0>         0.1282
     41 H11         4.9458  -11.6544    1.9520 H         1 <0>         0.1217
     42 H12         1.0723  -13.4171    2.2322 H         1 <0>         0.1217
     43 H13         0.4083  -12.2896    0.1463 H         1 <0>         0.1200
     44 H14         3.8829  -14.2706    3.2625 H         1 <0>         0.0716
     45 H15         4.1983  -12.6895    4.0167 H         1 <0>         0.0667
     46 H16         2.5815  -13.4248    4.1339 H         1 <0>         0.0665
     47 H17         1.0505   -6.9426    0.2879 H         1 <0>         0.1262
     48 H18         0.7880   -6.6410   -1.4466 H         1 <0>         0.1269
     49 H19         4.2373   -2.4898    0.7173 H         1 <0>         0.0877
     50 H20         4.3074   -3.2012   -0.9128 H         1 <0>         0.0965
     51 H21         3.7898   -1.5115   -0.7008 H         1 <0>         0.0957
     52 H22         2.9595   -0.7857    1.7646 H         1 <0>         0.1299
     53 H23         2.9505    1.6370    2.1804 H         1 <0>         0.1328
     54 H24         1.2817    3.0748    1.0869 H         1 <0>         0.1320
     55 H25        -0.3873    2.1030   -0.4345 H         1 <0>         0.1369
     56 H26        -2.2066   -0.0936   -2.2783 H         1 <0>         0.1032
     57 H27        -2.0978    0.9655   -0.8519 H         1 <0>         0.0594
     58 H28        -0.9914    1.2059   -2.2253 H         1 <0>         0.0566
@<TRIPOS>BOND
     1    1    2 1
     2    1   31 1
     3    1   32 1
     4    1   33 1
     5    2    3 1
     6    2   34 1
     7    2   35 1
     8    3    4 1
     9    3   36 1
    10    3   37 1
    11    4    5 1
    12    4   13 am
    13    5    6 1
    14    5   38 1
    15    5   39 1
    16    6   11 ar
    17    6    7 ar
    18    7    8 ar
    19    7   40 1
    20    8    9 ar
    21    8   41 1
    22    9   10 ar
    23    9   12 1
    24   10   11 ar
    25   10   42 1
    26   11   43 1
    27   12   44 1
    28   12   45 1
    29   12   46 1
    30   13   14 2
    31   13   15 1
    32   15   16 1
    33   15   47 1
    34   15   48 1
    35   16   17 1
    36   17   21 1
    37   17   18 2
    38   18   19 1
    39   19   20 2
    40   20   21 1
    41   20   23 1
    42   21   22 1
    43   22   49 1
    44   22   50 1
    45   22   51 1
    46   23   28 ar
    47   23   24 ar
    48   24   25 ar
    49   24   52 1
    50   25   26 ar
    51   25   53 1
    52   26   27 ar
    53   26   54 1
    54   27   28 ar
    55   27   55 1
    56   28   29 1
    57   29   30 1
    58   30   56 1
    59   30   57 1
    60   30   58 1
@<TRIPOS>MOLECULE
ZINC23101977
   55    57     0     0     0
SMALL
USER_CHARGES
2-[4-[(3,5-dimethylisoxazol-4-yl)methoxy]phenyl]-N-methyl-N-[[4-(trifluoromethoxy)phenyl]methyl]acetamide
@<TRIPOS>ATOM
      1 C1          1.9815   -1.7080   -0.0268 C.3       1 <0>        -0.0817
      2 C2          1.3784   -0.3270   -0.0129 C.2       1 <0>         0.0413
      3 C3          0.0021   -0.0041    0.0020 C.2       1 <0>        -0.2186
      4 C4         -0.0163    1.3503    0.0095 C.2       1 <0>         0.0040
      5 O1          1.2639    1.7472   -0.0006 O.3       1 <0>         0.1004
      6 N1          2.0215    0.8048   -0.0129 N.2       1 <0>        -0.3645
      7 C5         -1.2355    2.2360    0.0203 C.3       1 <0>        -0.0841
      8 C6         -1.1726   -0.9481    0.0082 C.3       1 <0>         0.1415
      9 O2         -1.5567   -1.2392   -1.3371 O.3       1 <0>        -0.3092
     10 C7         -2.6086   -2.0822   -1.5096 C.ar      1 <0>         0.1315
     11 C8         -3.2541   -2.6227   -0.4069 C.ar      1 <0>        -0.2068
     12 C9         -4.3270   -3.4745   -0.5849 C.ar      1 <0>        -0.0625
     13 C10        -4.7499   -3.7982   -1.8609 C.ar      1 <0>        -0.1053
     14 C11        -4.1047   -3.2654   -2.9616 C.ar      1 <0>        -0.0633
     15 C12        -3.0352   -2.4083   -2.7889 C.ar      1 <0>        -0.1479
     16 C13        -5.9164   -4.7330   -2.0523 C.3       1 <0>        -0.0967
     17 C14        -5.4153   -6.1521   -2.1305 C.2       1 <0>         0.5158
     18 O3         -4.2279   -6.3818   -2.0398 O.2       1 <0>        -0.5239
     19 N2         -6.2867   -7.1660   -2.3012 N.am      1 <0>        -0.6159
     20 C15        -7.7210   -6.8885   -2.4108 C.3       1 <0>         0.0740
     21 C16        -5.7996   -8.5455   -2.3772 C.3       1 <0>         0.1538
     22 C17        -5.7642   -9.1427   -0.9941 C.ar      1 <0>        -0.1254
     23 C18        -4.6216   -9.0318   -0.2234 C.ar      1 <0>        -0.0530
     24 C19        -4.5887   -9.5734    1.0470 C.ar      1 <0>        -0.1916
     25 C20        -5.6993  -10.2390    1.5450 C.ar      1 <0>         0.1080
     26 C21        -6.8426  -10.3539    0.7676 C.ar      1 <0>        -0.1266
     27 C22        -6.8725   -9.8056   -0.5000 C.ar      1 <0>        -0.0695
     28 O4         -5.6676  -10.7772    2.7925 O.3       1 <0>        -0.3111
     29 C23        -4.4574  -10.6205    3.5361 C.3       1 <0>         0.6040
     30 F1         -4.1883   -9.2583    3.7074 F         1 <0>        -0.1645
     31 F2         -4.5971  -11.2292    4.7879 F         1 <0>        -0.1299
     32 F3         -3.4020  -11.2205    2.8409 F         1 <0>        -0.1639
     33 H1          1.1779   -2.4591   -0.0230 H         1 <0>         0.0815
     34 H2          2.6124   -1.8415    0.8643 H         1 <0>         0.0822
     35 H3          2.5944   -1.8313   -0.9319 H         1 <0>         0.0835
     36 H4         -0.9226    3.2905    0.0245 H         1 <0>         0.0890
     37 H5         -1.8325    2.0270    0.9203 H         1 <0>         0.0942
     38 H6         -1.8413    2.0369   -0.8760 H         1 <0>         0.0968
     39 H7         -0.8909   -1.8806    0.5191 H         1 <0>         0.0785
     40 H8         -2.0160   -0.4805    0.5374 H         1 <0>         0.0781
     41 H9         -2.9211   -2.3739    0.5899 H         1 <0>         0.1272
     42 H10        -4.8331   -3.8914    0.2732 H         1 <0>         0.1216
     43 H11        -4.4373   -3.5193   -3.9572 H         1 <0>         0.1268
     44 H12        -2.5317   -1.9921   -3.6489 H         1 <0>         0.1306
     45 H13        -6.6082   -4.6347   -1.2028 H         1 <0>         0.1024
     46 H14        -6.4418   -4.4777   -2.9844 H         1 <0>         0.1038
     47 H15        -8.2680   -7.8333   -2.5451 H         1 <0>         0.0799
     48 H16        -7.9027   -6.2335   -3.2756 H         1 <0>         0.0660
     49 H17        -8.0692   -6.3903   -1.4939 H         1 <0>         0.0636
     50 H18        -6.4726   -9.1373   -3.0150 H         1 <0>         0.0906
     51 H19        -4.7867   -8.5536   -2.8061 H         1 <0>         0.0965
     52 H20        -3.7557   -8.5174   -0.6133 H         1 <0>         0.1390
     53 H21        -3.6975   -9.4827    1.6503 H         1 <0>         0.1337
     54 H22        -7.7084  -10.8719    1.1530 H         1 <0>         0.1398
     55 H23        -7.7624   -9.8945   -1.1054 H         1 <0>         0.1364
@<TRIPOS>BOND
     1    1    2 1
     2    1   33 1
     3    1   34 1
     4    1   35 1
     5    2    6 2
     6    2    3 1
     7    3    4 2
     8    3    8 1
     9    4    5 1
    10    4    7 1
    11    5    6 1
    12    7   36 1
    13    7   37 1
    14    7   38 1
    15    8    9 1
    16    8   39 1
    17    8   40 1
    18    9   10 1
    19   10   15 ar
    20   10   11 ar
    21   11   12 ar
    22   11   41 1
    23   12   13 ar
    24   12   42 1
    25   13   14 ar
    26   13   16 1
    27   14   15 ar
    28   14   43 1
    29   15   44 1
    30   16   17 1
    31   16   45 1
    32   16   46 1
    33   17   18 2
    34   17   19 am
    35   19   20 1
    36   19   21 1
    37   20   47 1
    38   20   48 1
    39   20   49 1
    40   21   22 1
    41   21   50 1
    42   21   51 1
    43   22   27 ar
    44   22   23 ar
    45   23   24 ar
    46   23   52 1
    47   24   25 ar
    48   24   53 1
    49   25   26 ar
    50   25   28 1
    51   26   27 ar
    52   26   54 1
    53   27   55 1
    54   28   29 1
    55   29   30 1
    56   29   31 1
    57   29   32 1
@<TRIPOS>MOLECULE
ZINC39620800
   63    64     0     0     0
SMALL
USER_CHARGES

@<TRIPOS>ATOM
      1 C1         -2.1840    1.6730    0.2447 C.3       1 <0>        -0.1177
      2 C2         -1.7858    0.2221    0.1581 C.ar      1 <0>        -0.0500
      3 C3         -1.6904   -0.3956   -1.0755 C.ar      1 <0>        -0.1511
      4 C4         -1.3253   -1.7264   -1.1583 C.ar      1 <0>        -0.0738
      5 C5         -1.0552   -2.4427   -0.0082 C.ar      1 <0>        -0.1036
      6 C6         -1.1501   -1.8254    1.2303 C.ar      1 <0>         0.1312
      7 C7         -1.5108   -0.4879    1.3104 C.ar      1 <0>        -0.2075
      8 O1         -0.8848   -2.5278    2.3631 O.3       1 <0>        -0.2918
      9 C8         -1.0027   -1.8276    3.6032 C.3       1 <0>         0.0704
     10 C9         -0.6732   -2.7604    4.7400 C.2       1 <0>         0.4649
     11 O2         -0.3686   -3.9072    4.5117 O.2       1 <0>        -0.4795
     12 O3         -0.7180   -2.3173    6.0063 O.3       1 <0>        -0.3307
     13 C10        -0.3936   -3.2559    7.0339 C.3       1 <0>         0.0291
     14 C11        -0.4971   -2.5839    8.3788 C.2       1 <0>         0.4318
     15 O4         -0.8173   -1.4157    8.4503 O.2       1 <0>        -0.4495
     16 C12        -0.2113   -3.3409    9.5995 C.2       1 <0>        -0.2680
     17 C13         0.1928   -4.7501    9.6932 C.2       1 <0>        -0.1513
     18 C14         0.3444   -5.0141   11.0018 C.2       1 <0>         0.0133
     19 N1          0.0680   -3.8874   11.7211 N.pl3     1 <0>        -0.4259
     20 C15        -0.2605   -2.8745   10.8997 C.2       1 <0>         0.1256
     21 C16        -0.6225   -1.4744   11.3236 C.3       1 <0>        -0.1011
     22 C17         0.1272   -3.7932   13.1818 C.3       1 <0>         0.1243
     23 H1         -0.0249   -2.7575   13.4856 H         1 <0>         0.1120
     24 C18        -0.9669   -4.6701   13.7942 C.3       1 <0>        -0.1630
     25 C19         1.4964   -4.2717   13.6687 C.3       1 <0>         0.0465
     26 O5          1.5969   -4.0711   15.0800 O.3       1 <0>        -0.3855
     27 C20         2.8445   -4.4873   15.6389 C.3       1 <0>         0.0319
     28 C21         0.7536   -6.3429   11.5830 C.3       1 <0>        -0.0973
     29 C22        -0.6582   -3.8937   -0.0992 C.3       1 <0>        -0.0548
     30 C23        -1.7785   -4.6876   -0.7740 C.3       1 <0>        -0.1423
     31 C24         0.6247   -4.0207   -0.9232 C.3       1 <0>        -0.1422
     32 H2         -1.2921    2.2979    0.1994 H         1 <0>         0.0734
     33 H3         -2.8429    1.9192   -0.5880 H         1 <0>         0.0694
     34 H4         -2.7051    1.8512    1.1853 H         1 <0>         0.0673
     35 H5         -1.9019    0.1624   -1.9756 H         1 <0>         0.1245
     36 H6         -1.2515   -2.2066   -2.1229 H         1 <0>         0.1300
     37 H7         -1.5808   -0.0038    2.2733 H         1 <0>         0.1293
     38 H8         -0.3108   -0.9854    3.6121 H         1 <0>         0.1089
     39 H9         -2.0228   -1.4611    3.7180 H         1 <0>         0.1090
     40 H10        -1.0884   -4.0947    6.9924 H         1 <0>         0.1044
     41 H11         0.6235   -3.6190    6.8865 H         1 <0>         0.1041
     42 H12         0.3390   -5.4375    8.8731 H         1 <0>         0.1502
     43 H13        -1.6983   -1.4110   11.4871 H         1 <0>         0.0833
     44 H14        -0.0994   -1.2277   12.2475 H         1 <0>         0.0681
     45 H15        -0.3317   -0.7717   10.5427 H         1 <0>         0.1013
     46 H16        -0.7526   -5.7180   13.5842 H         1 <0>         0.0689
     47 H17        -0.9963   -4.5143   14.8726 H         1 <0>         0.0860
     48 H18        -1.9312   -4.4028   13.3620 H         1 <0>         0.0667
     49 H19         1.6122   -5.3318   13.4433 H         1 <0>         0.0680
     50 H20         2.2796   -3.7054   13.1646 H         1 <0>         0.0574
     51 H21         2.8414   -4.3020   16.7130 H         1 <0>         0.0926
     52 H22         2.9882   -5.5519   15.4542 H         1 <0>         0.0450
     53 H23         3.6556   -3.9255   15.1756 H         1 <0>         0.0444
     54 H24         1.8409   -6.4194   11.5845 H         1 <0>         0.0737
     55 H25         0.3823   -6.4223   12.6048 H         1 <0>         0.0725
     56 H26         0.3335   -7.1480   10.9802 H         1 <0>         0.0842
     57 H27        -0.4869   -4.2870    0.9029 H         1 <0>         0.0878
     58 H28        -1.9498   -4.2942   -1.7761 H         1 <0>         0.0549
     59 H29        -1.4914   -5.7370   -0.8398 H         1 <0>         0.0583
     60 H30        -2.6925   -4.5971   -0.1870 H         1 <0>         0.0545
     61 H31         1.4228   -3.4551   -0.4424 H         1 <0>         0.0544
     62 H32         0.9118   -5.0701   -0.9890 H         1 <0>         0.0583
     63 H33         0.4534   -3.6274   -1.9252 H         1 <0>         0.0549
@<TRIPOS>BOND
     1    1    2 1
     2    1   32 1
     3    1   33 1
     4    1   34 1
     5    2    7 ar
     6    2    3 ar
     7    3    4 ar
     8    3   35 1
     9    4    5 ar
    10    4   36 1
    11    5    6 ar
    12    5   29 1
    13    6    7 ar
    14    6    8 1
    15    7   37 1
    16    8    9 1
    17    9   10 1
    18    9   38 1
    19    9   39 1
    20   10   11 2
    21   10   12 1
    22   12   13 1
    23   13   14 1
    24   13   40 1
    25   13   41 1
    26   14   15 2
    27   14   16 1
    28   16   20 2
    29   16   17 1
    30   17   18 2
    31   17   42 1
    32   18   19 1
    33   18   28 1
    34   19   20 1
    35   19   22 1
    36   20   21 1
    37   21   43 1
    38   21   44 1
    39   21   45 1
    40   22   23 1
    41   22   24 1
    42   22   25 1
    43   24   46 1
    44   24   47 1
    45   24   48 1
    46   25   26 1
    47   25   49 1
    48   25   50 1
    49   26   27 1
    50   27   51 1
    51   27   52 1
    52   27   53 1
    53   28   54 1
    54   28   55 1
    55   28   56 1
    56   29   30 1
    57   29   31 1
    58   29   57 1
    59   30   58 1
    60   30   59 1
    61   30   60 1
    62   31   61 1
    63   31   62 1
    64   31   63 1
@<TRIPOS>MOLECULE
ZINC04358535
   52    54     0     0     0
SMALL
USER_CHARGES
N,N-diallyl-2-[[4-(p-tolyl)-5-(3-pyridyl)-1,2,4-triazol-3-yl]sulfanyl]acetamide
@<TRIPOS>ATOM
      1 C1          0.1590    5.6693   -0.1095 C.3       1 <0>        -0.1218
      2 C2          0.1279    4.1628   -0.0860 C.ar      1 <0>        -0.0605
      3 C3          1.2957    3.4456   -0.2698 C.ar      1 <0>        -0.1053
      4 C4          1.2703    2.0648   -0.2488 C.ar      1 <0>        -0.0927
      5 C5          0.0707    1.3970   -0.0433 C.ar      1 <0>         0.0877
      6 C6         -1.1012    2.1198    0.1352 C.ar      1 <0>        -0.0912
      7 C7         -1.0685    3.5005    0.1189 C.ar      1 <0>        -0.1067
      8 N1          0.0416   -0.0043   -0.0219 N.pl3     1 <0>        -0.4112
      9 C8         -0.5491   -0.8396   -0.9449 C.2       1 <0>         0.2368
     10 N2         -0.3351   -2.0707   -0.5421 N.2       1 <0>        -0.2580
     11 N3          0.3304   -2.0646    0.5570 N.2       1 <0>        -0.2854
     12 C9          0.5888   -0.8288    0.9228 C.2       1 <0>         0.1543
     13 S1          1.4750   -0.3276    2.3610 S.3       1 <0>         0.0959
     14 C10         1.8579   -1.9465    3.0742 C.3       1 <0>        -0.1519
     15 C11         2.6368   -1.7614    4.3510 C.2       1 <0>         0.5361
     16 O1          2.9064   -0.6449    4.7404 O.2       1 <0>        -0.5201
     17 N4          3.0337   -2.8366    5.0601 N.am      1 <0>        -0.5975
     18 C12         2.7080   -4.1852    4.5898 C.3       1 <0>         0.1309
     19 C13         3.8112   -4.6845    3.6927 C.2       1 <0>        -0.1844
     20 C14         4.4042   -5.8227    3.9551 C.2       1 <0>        -0.1650
     21 C15         3.7909   -2.6566    6.3013 C.3       1 <0>         0.1428
     22 C16         2.8356   -2.5581    7.4627 C.2       1 <0>        -0.1729
     23 C17         2.9617   -3.3675    8.4850 C.2       1 <0>        -0.1754
     24 C18        -1.2824   -0.4275   -2.1603 C.ar      1 <0>        -0.0740
     25 C19        -1.1336    0.8650   -2.6776 C.ar      1 <0>        -0.0580
     26 C20        -1.8423    1.2006   -3.8175 C.ar      1 <0>        -0.1683
     27 C21        -2.6675    0.2577   -4.4041 C.ar      1 <0>         0.1152
     28 N5         -2.7883   -0.9530   -3.8944 N.ar      1 <0>        -0.4779
     29 C22        -2.1304   -1.3220   -2.8148 C.ar      1 <0>         0.1496
     30 H1         -0.0007    6.0202   -1.1291 H         1 <0>         0.0784
     31 H2         -0.6279    6.0591    0.5363 H         1 <0>         0.0729
     32 H3          1.1280    6.0183    0.2473 H         1 <0>         0.0733
     33 H4          2.2287    3.9657   -0.4296 H         1 <0>         0.1388
     34 H5          2.1828    1.5052   -0.3924 H         1 <0>         0.1342
     35 H6         -2.0366    1.6030    0.2912 H         1 <0>         0.1309
     36 H7         -1.9791    4.0634    0.2618 H         1 <0>         0.1378
     37 H8          0.9306   -2.4778    3.2881 H         1 <0>         0.1284
     38 H9          2.4526   -2.5239    2.3663 H         1 <0>         0.1284
     39 H10         2.6048   -4.8532    5.4449 H         1 <0>         0.0909
     40 H11         1.7710   -4.1596    4.0335 H         1 <0>         0.0928
     41 H12         4.1130   -4.1038    2.8336 H         1 <0>         0.1117
     42 H13         5.1948   -6.1805    3.3122 H         1 <0>         0.1028
     43 H14         4.1024   -6.4034    4.8142 H         1 <0>         0.1002
     44 H15         4.4551   -3.5082    6.4485 H         1 <0>         0.0861
     45 H16         4.3809   -1.7423    6.2377 H         1 <0>         0.0959
     46 H17         2.0470   -1.8202    7.4522 H         1 <0>         0.1112
     47 H18         2.2770   -3.2969    9.3173 H         1 <0>         0.1014
     48 H19         3.7502   -4.1054    8.4955 H         1 <0>         0.0986
     49 H20        -0.4826    1.5816   -2.1991 H         1 <0>         0.1377
     50 H21        -1.7521    2.1883   -4.2450 H         1 <0>         0.1431
     51 H22        -3.2216    0.5170   -5.2941 H         1 <0>         0.1637
     52 H23        -2.2518   -2.3238   -2.4300 H         1 <0>         0.1698
@<TRIPOS>BOND
     1    1    2 1
     2    1   30 1
     3    1   31 1
     4    1   32 1
     5    2    7 ar
     6    2    3 ar
     7    3    4 ar
     8    3   33 1
     9    4    5 ar
    10    4   34 1
    11    5    6 ar
    12    5    8 1
    13    6    7 ar
    14    6   35 1
    15    7   36 1
    16    8   12 1
    17    8    9 1
    18    9   10 2
    19    9   24 1
    20   10   11 1
    21   11   12 2
    22   12   13 1
    23   13   14 1
    24   14   15 1
    25   14   37 1
    26   14   38 1
    27   15   16 2
    28   15   17 am
    29   17   18 1
    30   17   21 1
    31   18   19 1
    32   18   39 1
    33   18   40 1
    34   19   20 2
    35   19   41 1
    36   20   42 1
    37   20   43 1
    38   21   22 1
    39   21   44 1
    40   21   45 1
    41   22   23 2
    42   22   46 1
    43   23   47 1
    44   23   48 1
    45   24   29 ar
    46   24   25 ar
    47   25   26 ar
    48   25   49 1
    49   26   27 ar
    50   26   50 1
    51   27   28 ar
    52   27   51 1
    53   28   29 ar
    54   29   52 1
@<TRIPOS>MOLECULE
ZINC07364352
   59    60     0     0     0
SMALL
USER_CHARGES
1-(diisopropylcarbamoyl)ethyl 2-[(3,5-dimethylisoxazol-4-yl)methylsulfanyl]benzoate
@<TRIPOS>ATOM
      1 C1          3.3337    1.8505   -2.3748 C.3       1 <0>        -0.0805
      2 C2          3.2450    2.1250   -0.8957 C.2       1 <0>         0.0358
      3 C3          2.0901    2.0339   -0.0852 C.2       1 <0>        -0.1955
      4 C4          2.5281    2.3806    1.1488 C.2       1 <0>        -0.0065
      5 O1          3.8381    2.6376    1.0283 O.3       1 <0>         0.1008
      6 N1          4.2163    2.4935   -0.1112 N.2       1 <0>        -0.3621
      7 C5          1.7054    2.4595    2.4090 C.3       1 <0>        -0.0786
      8 C6          0.6938    1.6470   -0.4995 C.3       1 <0>        -0.0804
      9 S1          0.4919   -0.1447   -0.3406 S.3       1 <0>         0.0164
     10 C7         -1.1791   -0.3127   -0.8736 C.ar      1 <0>        -0.0433
     11 C8         -1.9070    0.8084   -1.2564 C.ar      1 <0>        -0.1519
     12 C9         -3.2147    0.6739   -1.6731 C.ar      1 <0>        -0.0568
     13 C10        -3.8139   -0.5759   -1.7147 C.ar      1 <0>        -0.1413
     14 C11        -3.1101   -1.6986   -1.3397 C.ar      1 <0>        -0.0362
     15 C12        -1.7817   -1.5810   -0.9197 C.ar      1 <0>        -0.1224
     16 C13        -1.0210   -2.7778   -0.5236 C.2       1 <0>         0.5050
     17 O2          0.1322   -2.6705   -0.1551 O.2       1 <0>        -0.4814
     18 O3         -1.6035   -3.9924   -0.5695 O.3       1 <0>        -0.3212
     19 C14        -0.7938   -5.1276   -0.1646 C.3       1 <0>         0.0708
     20 H1          0.2537   -4.9246   -0.3874 H         1 <0>         0.1095
     21 C15        -0.9594   -5.3620    1.3382 C.3       1 <0>        -0.1720
     22 C16        -1.2385   -6.3555   -0.9166 C.2       1 <0>         0.5227
     23 O4         -2.2802   -6.3422   -1.5376 O.2       1 <0>        -0.5079
     24 N2         -0.4786   -7.4685   -0.8989 N.am      1 <0>        -0.5997
     25 C17         0.7268   -7.5194   -0.0680 C.3       1 <0>         0.1162
     26 C18         0.5661   -8.6052    0.9979 C.3       1 <0>        -0.1661
     27 C19         1.9380   -7.8416   -0.9456 C.3       1 <0>        -0.1656
     28 C20        -0.8581   -8.6275   -1.7107 C.3       1 <0>         0.1464
     29 C21        -2.2377   -9.1255   -1.2752 C.3       1 <0>        -0.1699
     30 C22        -0.9039   -8.2239   -3.1858 C.3       1 <0>        -0.1708
     31 H2          3.1399    2.7700   -2.9272 H         1 <0>         0.0819
     32 H3          4.3314    1.4845   -2.6172 H         1 <0>         0.0799
     33 H4          2.5941    1.0986   -2.6498 H         1 <0>         0.0836
     34 H5          1.7204    1.4936    2.9138 H         1 <0>         0.0943
     35 H6          2.1228    3.2206    3.0683 H         1 <0>         0.0875
     36 H7          0.6779    2.7215    2.1563 H         1 <0>         0.0910
     37 H8          0.5278    1.9408   -1.5359 H         1 <0>         0.1016
     38 H9         -0.0285    2.1523    0.1416 H         1 <0>         0.1009
     39 H10        -1.4478    1.7855   -1.2277 H         1 <0>         0.1358
     40 H11        -3.7758    1.5478   -1.9693 H         1 <0>         0.1345
     41 H12        -4.8384   -0.6695   -2.0434 H         1 <0>         0.1360
     42 H13        -3.5822   -2.6693   -1.3743 H         1 <0>         0.1454
     43 H14        -0.7261   -4.4436    1.8771 H         1 <0>         0.0779
     44 H15        -1.9877   -5.6557    1.5490 H         1 <0>         0.0753
     45 H16        -0.2823   -6.1536    1.6593 H         1 <0>         0.0866
     46 H17         0.8754   -6.5542    0.4162 H         1 <0>         0.0960
     47 H18         1.4630   -8.6430    1.6162 H         1 <0>         0.0724
     48 H19        -0.2968   -8.3757    1.6231 H         1 <0>         0.0619
     49 H20         0.4175   -9.5704    0.5138 H         1 <0>         0.0639
     50 H21         2.0525   -7.0680   -1.7049 H         1 <0>         0.0612
     51 H22         2.8349   -7.8794   -0.3273 H         1 <0>         0.0726
     52 H23         1.7894   -8.8068   -1.4297 H         1 <0>         0.0635
     53 H24        -0.1251   -9.4225   -1.5741 H         1 <0>         0.0891
     54 H25        -2.9875   -8.3700   -1.5099 H         1 <0>         0.0792
     55 H26        -2.4743  -10.0488   -1.8040 H         1 <0>         0.0636
     56 H27        -2.2341   -9.3125   -0.2014 H         1 <0>         0.0544
     57 H28         0.0945   -7.9357   -3.5148 H         1 <0>         0.0540
     58 H29        -1.2539   -9.0664   -3.7823 H         1 <0>         0.0668
     59 H30        -1.5849   -7.3821   -3.3113 H         1 <0>         0.0757
@<TRIPOS>BOND
     1    1    2 1
     2    1   31 1
     3    1   32 1
     4    1   33 1
     5    2    6 2
     6    2    3 1
     7    3    4 2
     8    3    8 1
     9    4    5 1
    10    4    7 1
    11    5    6 1
    12    7   34 1
    13    7   35 1
    14    7   36 1
    15    8    9 1
    16    8   37 1
    17    8   38 1
    18    9   10 1
    19   10   15 ar
    20   10   11 ar
    21   11   12 ar
    22   11   39 1
    23   12   13 ar
    24   12   40 1
    25   13   14 ar
    26   13   41 1
    27   14   15 ar
    28   14   42 1
    29   15   16 1
    30   16   17 2
    31   16   18 1
    32   18   19 1
    33   19   20 1
    34   19   21 1
    35   19   22 1
    36   21   43 1
    37   21   44 1
    38   21   45 1
    39   22   23 2
    40   22   24 am
    41   24   25 1
    42   24   28 1
    43   25   26 1
    44   25   27 1
    45   25   46 1
    46   26   47 1
    47   26   48 1
    48   26   49 1
    49   27   50 1
    50   27   51 1
    51   27   52 1
    52   28   29 1
    53   28   30 1
    54   28   53 1
    55   29   54 1
    56   29   55 1
    57   29   56 1
    58   30   57 1
    59   30   58 1
    60   30   59 1
@<TRIPOS>MOLECULE
ZINC21625421
   56    58     0     0     0
SMALL
USER_CHARGES
(3R)-3-[[5-[3-(4-tert-butylphenoxy)propylsulfanyl]-1,3,4-oxadiazol-2-yl]methyl]thiolane 1,1-dioxide
@<TRIPOS>ATOM
      1 C1         -0.5379  -12.2120   -1.3073 C.3       1 <0>        -0.1412
      2 C2         -0.0176  -11.4960   -0.0593 C.3       1 <0>        -0.0259
      3 C3          1.5123  -11.4917   -0.0744 C.3       1 <0>        -0.1472
      4 C4         -0.5132  -12.2254    1.1910 C.3       1 <0>        -0.1412
      5 C5         -0.5238  -10.0767   -0.0467 C.ar      1 <0>        -0.1052
      6 C6         -1.8841   -9.8291   -0.0320 C.ar      1 <0>        -0.0759
      7 C7         -2.3506   -8.5289   -0.0204 C.ar      1 <0>        -0.1479
      8 C8         -1.4531   -7.4711   -0.0236 C.ar      1 <0>         0.1242
      9 C9         -0.0888   -7.7220   -0.0442 C.ar      1 <0>        -0.2058
     10 C10         0.3728   -9.0241   -0.0495 C.ar      1 <0>        -0.0813
     11 O1         -1.9096   -6.1911   -0.0122 O.3       1 <0>        -0.3142
     12 C11        -0.9283   -5.1523   -0.0164 C.3       1 <0>         0.0661
     13 C12        -1.6266   -3.7910   -0.0022 C.3       1 <0>        -0.1081
     14 C13        -0.5760   -2.6788   -0.0066 C.3       1 <0>        -0.1213
     15 S1         -1.4021   -1.0684    0.0102 S.3       1 <0>         0.0815
     16 C14         0.0021   -0.0041    0.0020 C.2       1 <0>         0.1323
     17 N1          1.2597   -0.3756   -0.0120 N.2       1 <0>        -0.2858
     18 N2          2.0117    0.6682   -0.0136 N.2       1 <0>        -0.2703
     19 C15         1.2719    1.7380   -0.0008 C.2       1 <0>         0.1685
     20 O2         -0.0162    1.3422    0.0094 O.3       1 <0>        -0.2035
     21 C16         1.7657    3.1618    0.0022 C.3       1 <0>        -0.0171
     22 C17         1.9191    3.6514   -1.4392 C.3       1 <0>        -0.0944
     23 H1          2.5813    2.9651   -1.9874 H         1 <0>         0.1065
     24 C18         2.5406    5.0579   -1.4373 C.3       1 <0>        -0.1305
     25 C19         2.3964    5.6531   -2.8670 C.3       1 <0>        -0.5806
     26 S2          0.6932    5.0951   -3.2943 S.o2      1 <0>         2.3868
     27 O3         -0.2310    6.1114   -2.9311 O.2       1 <0>        -0.9308
     28 O4          0.6919    4.5900   -4.6225 O.2       1 <0>        -0.9348
     29 C20         0.5294    3.6896   -2.1195 C.3       1 <0>        -0.5943
     30 H2         -1.6378  -12.2151   -1.2964 H         1 <0>         0.0573
     31 H3         -0.1684  -13.2480   -1.3165 H         1 <0>         0.0592
     32 H4         -0.1815  -11.6876   -2.2062 H         1 <0>         0.0566
     33 H5          1.8864  -10.9769    0.8229 H         1 <0>         0.0586
     34 H6          1.8686  -10.9673   -0.9733 H         1 <0>         0.0587
     35 H7          1.8818  -12.5277   -0.0836 H         1 <0>         0.0596
     36 H8         -0.1391  -11.7106    2.0883 H         1 <0>         0.0565
     37 H9         -0.1436  -13.2614    1.1818 H         1 <0>         0.0592
     38 H10        -1.6131  -12.2285    1.2018 H         1 <0>         0.0573
     39 H11        -2.5824  -10.6530   -0.0298 H         1 <0>         0.1281
     40 H12        -3.4132   -8.3361   -0.0085 H         1 <0>         0.1302
     41 H13         0.6119   -6.9002   -0.0513 H         1 <0>         0.1268
     42 H14         1.4348   -9.2200   -0.0603 H         1 <0>         0.1292
     43 H15        -0.2907   -5.2466    0.8750 H         1 <0>         0.0690
     44 H16        -0.3085   -5.2370   -0.9212 H         1 <0>         0.0691
     45 H17        -2.2642   -3.6967   -0.8936 H         1 <0>         0.0909
     46 H18        -2.2465   -3.7063    0.9026 H         1 <0>         0.0908
     47 H19         0.0616   -2.7732    0.8848 H         1 <0>         0.1081
     48 H20         0.0439   -2.7635   -0.9114 H         1 <0>         0.1082
     49 H21         1.0422    3.7997    0.5311 H         1 <0>         0.1101
     50 H22         2.7393    3.2112    0.5118 H         1 <0>         0.1260
     51 H23         2.0129    5.6909   -0.7087 H         1 <0>         0.0957
     52 H24         3.6032    4.9889   -1.1614 H         1 <0>         0.1082
     53 H25         2.5056    6.7467   -2.8216 H         1 <0>         0.1478
     54 H26         3.1764    5.2335   -3.5193 H         1 <0>         0.1437
     55 H27         0.3428    2.7313   -2.6262 H         1 <0>         0.1404
     56 H28        -0.2467    3.8594   -1.3587 H         1 <0>         0.1458
@<TRIPOS>BOND
     1    1    2 1
     2    1   30 1
     3    1   31 1
     4    1   32 1
     5    2    3 1
     6    2    4 1
     7    2    5 1
     8    3   33 1
     9    3   34 1
    10    3   35 1
    11    4   36 1
    12    4   37 1
    13    4   38 1
    14    5   10 ar
    15    5    6 ar
    16    6    7 ar
    17    6   39 1
    18    7    8 ar
    19    7   40 1
    20    8    9 ar
    21    8   11 1
    22    9   10 ar
    23    9   41 1
    24   10   42 1
    25   11   12 1
    26   12   13 1
    27   12   43 1
    28   12   44 1
    29   13   14 1
    30   13   45 1
    31   13   46 1
    32   14   15 1
    33   14   47 1
    34   14   48 1
    35   15   16 1
    36   16   20 1
    37   16   17 2
    38   17   18 1
    39   18   19 2
    40   19   20 1
    41   19   21 1
    42   21   22 1
    43   21   49 1
    44   21   50 1
    45   22   23 1
    46   22   29 1
    47   22   24 1
    48   24   25 1
    49   24   51 1
    50   24   52 1
    51   25   26 1
    52   25   53 1
    53   25   54 1
    54   26   27 2
    55   26   28 2
    56   26   29 1
    57   29   55 1
    58   29   56 1
@<TRIPOS>MOLECULE
ZINC06836490
   67    67     0     0     0
SMALL
USER_CHARGES

@<TRIPOS>ATOM
      1 C1         -6.6351    1.5342    4.6715 C.3       1 <0>        -0.1523
      2 C2         -6.4131    0.1902    5.3682 C.3       1 <0>         0.0607
      3 O1         -5.0417   -0.1909    5.2421 O.3       1 <0>        -0.3576
      4 C3         -4.6769   -1.3605    5.8059 C.2       1 <0>         0.5375
      5 O2         -5.5016   -2.0379    6.3886 O.2       1 <0>        -0.4911
      6 C4         -3.2854   -1.8155    5.7161 C.2       1 <0>        -0.0508
      7 C5         -2.7901   -2.9746    6.2353 C.2       1 <0>        -0.0154
      8 C6         -1.4113   -3.0133    5.9186 C.2       1 <0>        -0.2605
      9 C7         -1.1261   -1.8566    5.2093 C.2       1 <0>         0.1110
     10 N1         -2.2569   -1.1465    5.0870 N.pl3     1 <0>        -0.4054
     11 C8         -2.3794    0.1401    4.3971 C.3       1 <0>         0.0597
     12 C9          0.2235   -1.4668    4.6637 C.3       1 <0>        -0.1005
     13 C10        -0.4642   -4.0748    6.2736 C.2       1 <0>         0.4371
     14 O3          0.1265   -4.0316    7.3324 O.2       1 <0>        -0.4331
     15 C11        -0.2244   -5.2195    5.3232 C.3       1 <0>         0.0972
     16 H1         -1.1672   -5.5110    4.8603 H         1 <0>         0.1293
     17 C12         0.7630   -4.7837    4.2388 C.3       1 <0>        -0.1561
     18 N2          0.3304   -6.3578    6.0599 N.am      1 <0>        -0.6079
     19 C13         1.6018   -6.2186    6.7742 C.3       1 <0>         0.0783
     20 C14        -0.3290   -7.5331    6.0805 C.2       1 <0>         0.5163
     21 O4         -1.3816   -7.6484    5.4892 O.2       1 <0>        -0.5316
     22 C15         0.2417   -8.7041    6.8383 C.3       1 <0>        -0.1352
     23 C16        -0.6954   -9.9057    6.7014 C.3       1 <0>        -0.0815
     24 H2         -1.6970   -9.6242    7.0264 H         1 <0>         0.0870
     25 C17        -0.7406  -10.3532    5.2390 C.3       1 <0>        -0.1503
     26 C18        -0.1813  -11.0550    7.5708 C.3       1 <0>        -0.1050
     27 C19        -1.2100  -12.1875    7.5794 C.3       1 <0>        -0.0659
     28 C20        -1.1283  -12.9607    6.2617 C.3       1 <0>        -0.1673
     29 C21        -0.9166  -13.1341    8.7451 C.3       1 <0>        -0.1424
     30 C22        -2.6136  -11.6004    7.7401 C.3       1 <0>        -0.1482
     31 C23        -3.5637   -4.0166    7.0015 C.3       1 <0>        -0.0961
     32 H3         -6.3789    1.4430    3.6160 H         1 <0>         0.0664
     33 H4         -7.6812    1.8249    4.7677 H         1 <0>         0.0821
     34 H5         -6.0033    2.2922    5.1346 H         1 <0>         0.0664
     35 H6         -6.6693    0.2814    6.4237 H         1 <0>         0.0700
     36 H7         -7.0449   -0.5678    4.9051 H         1 <0>         0.0703
     37 H8         -2.1924    0.9498    5.1024 H         1 <0>         0.0829
     38 H9         -1.6517    0.1887    3.5870 H         1 <0>         0.0905
     39 H10        -3.3851    0.2390    3.9887 H         1 <0>         0.1047
     40 H11         0.3338   -1.8591    3.6528 H         1 <0>         0.0878
     41 H12         0.3070   -0.3802    4.6430 H         1 <0>         0.0784
     42 H13         1.0059   -1.8792    5.3009 H         1 <0>         0.0875
     43 H14         1.7058   -4.4923    4.7017 H         1 <0>         0.0657
     44 H15         0.9364   -5.6117    3.5514 H         1 <0>         0.0751
     45 H16         0.3502   -3.9368    3.6906 H         1 <0>         0.0762
     46 H17         1.4109   -5.8853    7.7943 H         1 <0>         0.0692
     47 H18         2.1135   -7.1808    6.7961 H         1 <0>         0.0710
     48 H19         2.2271   -5.4861    6.2636 H         1 <0>         0.0708
     49 H20         1.2203   -8.9582    6.4311 H         1 <0>         0.0936
     50 H21         0.3435   -8.4407    7.8911 H         1 <0>         0.0935
     51 H22         0.1050  -11.0097    5.0337 H         1 <0>         0.0510
     52 H23        -1.6709  -10.8896    5.0518 H         1 <0>         0.0642
     53 H24        -0.6881   -9.4793    4.5898 H         1 <0>         0.0615
     54 H25         0.7613  -11.4233    7.1659 H         1 <0>         0.0633
     55 H26        -0.0248  -10.6985    8.5889 H         1 <0>         0.0616
     56 H27        -0.1456  -13.4238    6.1724 H         1 <0>         0.0508
     57 H28        -1.8969  -13.7334    6.2456 H         1 <0>         0.0494
     58 H29        -1.2843  -12.2757    5.4283 H         1 <0>         0.0808
     59 H30        -0.9747  -12.5833    9.6839 H         1 <0>         0.0532
     60 H31        -1.6494  -13.9410    8.7513 H         1 <0>         0.0535
     61 H32         0.0834  -13.5524    8.6306 H         1 <0>         0.0530
     62 H33        -2.8227  -10.9260    6.9097 H         1 <0>         0.0643
     63 H34        -3.3465  -12.4072    7.7463 H         1 <0>         0.0515
     64 H35        -2.6718  -11.0496    8.6789 H         1 <0>         0.0530
     65 H36        -4.0470   -4.6981    6.3014 H         1 <0>         0.0791
     66 H37        -2.8826   -4.5766    7.6422 H         1 <0>         0.0636
     67 H38        -4.3210   -3.5286    7.6150 H         1 <0>         0.0844
@<TRIPOS>BOND
     1    1    2 1
     2    1   32 1
     3    1   33 1
     4    1   34 1
     5    2    3 1
     6    2   35 1
     7    2   36 1
     8    3    4 1
     9    4    5 2
    10    4    6 1
    11    6   10 1
    12    6    7 2
    13    7    8 1
    14    7   31 1
    15    8    9 2
    16    8   13 1
    17    9   10 1
    18    9   12 1
    19   10   11 1
    20   11   37 1
    21   11   38 1
    22   11   39 1
    23   12   40 1
    24   12   41 1
    25   12   42 1
    26   13   14 2
    27   13   15 1
    28   15   16 1
    29   15   17 1
    30   15   18 1
    31   17   43 1
    32   17   44 1
    33   17   45 1
    34   18   19 1
    35   18   20 am
    36   19   46 1
    37   19   47 1
    38   19   48 1
    39   20   21 2
    40   20   22 1
    41   22   23 1
    42   22   49 1
    43   22   50 1
    44   23   24 1
    45   23   25 1
    46   23   26 1
    47   25   51 1
    48   25   52 1
    49   25   53 1
    50   26   27 1
    51   26   54 1
    52   26   55 1
    53   27   28 1
    54   27   29 1
    55   27   30 1
    56   28   56 1
    57   28   57 1
    58   28   58 1
    59   29   59 1
    60   29   60 1
    61   29   61 1
    62   30   62 1
    63   30   63 1
    64   30   64 1
    65   31   65 1
    66   31   66 1
    67   31   67 1
@<TRIPOS>MOLECULE
ZINC55507057
   59    60     0     0     0
SMALL
USER_CHARGES

@<TRIPOS>ATOM
      1 C1         -0.3151   -0.0331    2.0813 C.3       1 <0>        -0.1516
      2 C2         -0.2636   -1.5139    1.6999 C.3       1 <0>        -0.0947
      3 C3          0.4590   -2.2983    2.7969 C.3       1 <0>        -0.1483
      4 C4         -1.6880   -2.0501    1.5433 C.3       1 <0>        -0.1348
      5 C5         -2.3690   -1.3519    0.3645 C.3       1 <0>         0.1007
      6 N1         -3.7329   -1.8654    0.2146 N.am      1 <0>        -0.6035
      7 C6         -4.8410   -1.2181    0.9213 C.3       1 <0>         0.1140
      8 C7         -5.4331   -0.1159    0.0407 C.3       1 <0>        -0.1296
      9 C8         -6.5904    0.5600    0.7787 C.3       1 <0>        -0.0946
     10 C9         -6.0545    1.2773    2.0194 C.3       1 <0>        -0.1507
     11 C10        -7.2619    1.5760   -0.1475 C.3       1 <0>        -0.1475
     12 C11        -3.9682   -2.9331   -0.5734 C.2       1 <0>         0.5362
     13 O1         -5.0973   -3.3582   -0.6975 O.2       1 <0>        -0.5194
     14 C12        -2.8283   -3.5989   -1.3003 C.3       1 <0>        -0.1591
     15 S1         -3.4626   -4.9944   -2.2703 S.3       1 <0>         0.1294
     16 C13        -2.0286   -5.6585   -3.0498 C.2       1 <0>        -0.0362
     17 N2         -0.7629   -5.2739   -2.9747 N.2       1 <0>        -0.2666
     18 N3          0.1531   -5.8680   -3.6061 N.2       1 <0>        -0.3016
     19 C14        -0.0926   -6.9110   -4.3819 C.2       1 <0>         0.2645
     20 S2         -1.8642   -7.0508   -4.1635 S.3       1 <0>         0.1383
     21 N4          0.7789   -7.6833   -5.1460 N.am      1 <0>        -0.4728
     22 C15         2.1729   -7.2653   -5.3138 C.3       1 <0>         0.0452
     23 C16         2.5296   -5.8267   -4.9343 C.3       1 <0>        -0.1769
     24 C17         2.9844   -6.9871   -4.0469 C.3       1 <0>        -0.1716
     25 C18         0.3397   -8.8153   -5.7309 C.2       1 <0>         0.5151
     26 O2         -0.8342   -9.1140   -5.6690 O.2       1 <0>        -0.4998
     27 C19         1.3073   -9.7100   -6.4621 C.3       1 <0>        -0.1641
     28 H1          0.6997    0.3489    2.1928 H         1 <0>         0.0564
     29 H2         -0.8298    0.5257    1.2997 H         1 <0>         0.0558
     30 H3         -0.8518    0.0810    3.0231 H         1 <0>         0.0555
     31 H4          0.2732   -1.6280    0.7581 H         1 <0>         0.0734
     32 H5         -0.0778   -2.1842    3.7387 H         1 <0>         0.0546
     33 H6          0.4957   -3.3533    2.5252 H         1 <0>         0.0545
     34 H7          1.4737   -1.9163    2.9084 H         1 <0>         0.0567
     35 H8         -1.6538   -3.1239    1.3592 H         1 <0>         0.0656
     36 H9         -2.2517   -1.8557    2.4557 H         1 <0>         0.0700
     37 H10        -2.4032   -0.2782    0.5486 H         1 <0>         0.0883
     38 H11        -1.8053   -1.5464   -0.5479 H         1 <0>         0.0818
     39 H12        -5.6104   -1.9571    1.1449 H         1 <0>         0.0865
     40 H13        -4.4743   -0.7828    1.8509 H         1 <0>         0.0823
     41 H14        -4.6637    0.6231   -0.1829 H         1 <0>         0.0638
     42 H15        -5.7998   -0.5512   -0.8889 H         1 <0>         0.0681
     43 H16        -7.3182   -0.1931    1.0804 H         1 <0>         0.0726
     44 H17        -6.8790    1.7588    2.5451 H         1 <0>         0.0557
     45 H18        -5.5761    0.5535    2.6792 H         1 <0>         0.0551
     46 H19        -5.3266    2.0305    1.7176 H         1 <0>         0.0546
     47 H20        -7.6437    1.0650   -1.0314 H         1 <0>         0.0549
     48 H21        -8.0864    2.0575    0.3783 H         1 <0>         0.0559
     49 H22        -6.5340    2.3292   -0.4493 H         1 <0>         0.0537
     50 H23        -2.3528   -2.8794   -1.9669 H         1 <0>         0.1262
     51 H24        -2.0982   -3.9615   -0.5767 H         1 <0>         0.1264
     52 H25         2.6976   -7.7076   -6.1606 H         1 <0>         0.1532
     53 H26         3.2891   -5.3221   -5.5315 H         1 <0>         0.1072
     54 H27         1.7271   -5.1912   -4.5597 H         1 <0>         0.1324
     55 H28         2.4811   -7.1151   -3.0886 H         1 <0>         0.1014
     56 H29         4.0431   -7.2460   -4.0604 H         1 <0>         0.1094
     57 H30         2.1275   -9.9789   -5.7965 H         1 <0>         0.1006
     58 H31         0.7919  -10.6138   -6.7871 H         1 <0>         0.1059
     59 H32         1.7022   -9.1844   -7.3315 H         1 <0>         0.1016
@<TRIPOS>BOND
     1    1    2 1
     2    1   28 1
     3    1   29 1
     4    1   30 1
     5    2    3 1
     6    2    4 1
     7    2   31 1
     8    3   32 1
     9    3   33 1
    10    3   34 1
    11    4    5 1
    12    4   35 1
    13    4   36 1
    14    5    6 1
    15    5   37 1
    16    5   38 1
    17    6    7 1
    18    6   12 am
    19    7    8 1
    20    7   39 1
    21    7   40 1
    22    8    9 1
    23    8   41 1
    24    8   42 1
    25    9   10 1
    26    9   11 1
    27    9   43 1
    28   10   44 1
    29   10   45 1
    30   10   46 1
    31   11   47 1
    32   11   48 1
    33   11   49 1
    34   12   13 2
    35   12   14 1
    36   14   15 1
    37   14   50 1
    38   14   51 1
    39   15   16 1
    40   16   20 1
    41   16   17 2
    42   17   18 1
    43   18   19 2
    44   19   20 1
    45   19   21 1
    46   21   22 1
    47   21   25 am
    48   22   24 1
    49   22   23 1
    50   22   52 1
    51   23   24 1
    52   23   53 1
    53   23   54 1
    54   24   55 1
    55   24   56 1
    56   25   26 2
    57   25   27 1
    58   27   57 1
    59   27   58 1
    60   27   59 1
@<TRIPOS>MOLECULE
ZINC01212318
   54    57     0     0     0
SMALL
USER_CHARGES
ethyl 8-[(5-bromo-2-furyl)methylene]-5-(4-dimethylaminophenyl)-3-methyl-7-oxo-9-thia-2,6-diazabicyclo[4.3.0]nona-1,3-diene-4-carboxylate
@<TRIPOS>ATOM
      1 C1         -2.3670   -2.1608   -2.4444 C.3       1 <0>        -0.1520
      2 C2         -2.5022   -0.7406   -2.9973 C.3       1 <0>         0.0622
      3 O1         -2.1477    0.2013   -1.9828 O.3       1 <0>        -0.3426
      4 C3         -2.2140    1.5100   -2.3109 C.2       1 <0>         0.5303
      5 O2         -2.5640    1.8405   -3.4300 O.2       1 <0>        -0.5083
      6 C4         -1.8796    2.4894   -1.3622 C.2       1 <0>        -0.2713
      7 C5         -1.8200    3.8111   -1.7074 C.2       1 <0>         0.2418
      8 N1         -1.5030    4.7308   -0.8045 N.2       1 <0>        -0.5087
      9 C6         -1.2284    4.4794    0.4491 C.2       1 <0>         0.3956
     10 N2         -1.2309    3.2196    1.0038 N.am      1 <0>        -0.5773
     11 C7         -0.9314    3.0998    2.3030 C.2       1 <0>         0.5520
     12 O3         -0.9222    2.0036    2.8339 O.2       1 <0>        -0.4573
     13 C8         -0.6237    4.2649    3.0565 C.2       1 <0>        -0.2288
     14 C9         -0.2941    4.3806    4.3761 C.2       1 <0>         0.1078
     15 C10        -0.0239    5.6524    4.9275 C.2       1 <0>        -0.0181
     16 C11         0.3145    5.9152    6.2411 C.2       1 <0>        -0.1202
     17 C12         0.4939    7.3026    6.3372 C.2       1 <0>        -0.1630
     18 C13         0.2550    7.8234    5.1111 C.2       1 <0>         0.0083
     19 O4         -0.0558    6.8291    4.2666 O.3       1 <0>        -0.1449
     20 Br1         0.3459    9.6578    4.6609 Br        1 <0>         0.0719
     21 S1         -0.7854    5.5372    1.8131 S.3       1 <0>         0.1421
     22 C14        -1.5756    2.1124    0.0698 C.3       1 <0>         0.2509
     23 H1         -2.4456    1.5932    0.4718 H         1 <0>         0.0956
     24 C15        -0.4247    1.1397    0.0589 C.ar      1 <0>        -0.1594
     25 C16         0.8745    1.6089   -0.0070 C.ar      1 <0>        -0.0535
     26 C17         1.9314    0.7200   -0.0231 C.ar      1 <0>        -0.1990
     27 C18         1.6882   -0.6467    0.0272 C.ar      1 <0>         0.2245
     28 C19         0.3819   -1.1146    0.0934 C.ar      1 <0>        -0.1980
     29 C20        -0.6703   -0.2203    0.1090 C.ar      1 <0>        -0.0128
     30 N3          2.7548   -1.5484    0.0116 N.pl3     1 <0>        -0.6378
     31 C21         2.4965   -2.9895    0.0652 C.3       1 <0>         0.0929
     32 C22         4.1317   -1.0532   -0.0582 C.3       1 <0>         0.0927
     33 C23        -2.1164    4.2270   -3.1253 C.3       1 <0>        -0.1147
     34 H2         -3.0305   -2.2820   -1.5881 H         1 <0>         0.0653
     35 H3         -2.6374   -2.8793   -3.2182 H         1 <0>         0.0774
     36 H4         -1.3367   -2.3328   -2.1329 H         1 <0>         0.0667
     37 H5         -3.5325   -0.5686   -3.3088 H         1 <0>         0.0660
     38 H6         -1.8387   -0.6194   -3.8535 H         1 <0>         0.0654
     39 H7         -0.2399    3.4997    4.9985 H         1 <0>         0.1914
     40 H8          0.4220    5.1933    7.0372 H         1 <0>         0.1747
     41 H9          0.7669    7.8534    7.2252 H         1 <0>         0.1721
     42 H10         1.0628    2.6716   -0.0464 H         1 <0>         0.1034
     43 H11         2.9458    1.0871   -0.0742 H         1 <0>         0.1206
     44 H12         0.1894   -2.1766    0.1322 H         1 <0>         0.1232
     45 H13        -1.6861   -0.5834    0.1601 H         1 <0>         0.1248
     46 H14         2.3914   -3.3777   -0.9479 H         1 <0>         0.0484
     47 H15         3.3282   -3.4895    0.5614 H         1 <0>         0.0664
     48 H16         1.5776   -3.1735    0.6219 H         1 <0>         0.0694
     49 H17         4.5142   -0.8996    0.9509 H         1 <0>         0.0482
     50 H18         4.7545   -1.7829   -0.5756 H         1 <0>         0.0669
     51 H19         4.1510   -0.1086   -0.6018 H         1 <0>         0.0678
     52 H20        -3.1933    4.3338   -3.2550 H         1 <0>         0.0941
     53 H21        -1.6290    5.1793   -3.3340 H         1 <0>         0.0761
     54 H22        -1.7411    3.4685   -3.8124 H         1 <0>         0.1111
@<TRIPOS>BOND
     1    1    2 1
     2    1   34 1
     3    1   35 1
     4    1   36 1
     5    2    3 1
     6    2   37 1
     7    2   38 1
     8    3    4 1
     9    4    5 2
    10    4    6 1
    11    6   22 1
    12    6    7 2
    13    7    8 1
    14    7   33 1
    15    8    9 2
    16    9   21 1
    17    9   10 1
    18   10   11 am
    19   10   22 1
    20   11   12 2
    21   11   13 1
    22   13   14 2
    23   13   21 1
    24   14   15 1
    25   14   39 1
    26   15   19 1
    27   15   16 2
    28   16   17 1
    29   16   40 1
    30   17   18 2
    31   17   41 1
    32   18   19 1
    33   18   20 1
    34   22   23 1
    35   22   24 1
    36   24   29 ar
    37   24   25 ar
    38   25   26 ar
    39   25   42 1
    40   26   27 ar
    41   26   43 1
    42   27   28 ar
    43   27   30 1
    44   28   29 ar
    45   28   44 1
    46   29   45 1
    47   30   31 1
    48   30   32 1
    49   31   46 1
    50   31   47 1
    51   31   48 1
    52   32   49 1
    53   32   50 1
    54   32   51 1
    55   33   52 1
    56   33   53 1
    57   33   54 1
@<TRIPOS>MOLECULE
ZINC16501231
   64    67     0     0     0
SMALL
USER_CHARGES
4-chloro-3-nitro-N-[2-oxo-2-[(4S)-4-(p-tolyl)-6,7-dihydro-4H-thieno[3,2-c]pyridin-5-yl]ethyl]-N-sec-butyl-benzamide
@<TRIPOS>ATOM
      1 C1          0.9960    3.3309   -2.0125 C.3       1 <0>        -0.1571
      2 C2          1.9513    3.0908   -0.8417 C.3       1 <0>        -0.1786
      3 C3          1.2326    2.2918    0.2473 C.3       1 <0>         0.1336
      4 H1          0.2679    2.7529    0.4595 H         1 <0>         0.1051
      5 C4          2.0838    2.2822    1.5186 C.3       1 <0>        -0.2043
      6 N1          1.0258    0.9162   -0.2123 N.am      1 <0>        -0.6018
      7 C5         -0.1727    0.5735   -0.9820 C.3       1 <0>         0.1007
      8 C6         -1.2704    0.1500   -0.0403 C.2       1 <0>         0.5030
      9 O1         -1.0713    0.1360    1.1560 O.2       1 <0>        -0.5139
     10 N2         -2.4735   -0.2130   -0.5275 N.am      1 <0>        -0.6048
     11 C7         -2.7281   -0.1939   -1.9757 C.3       1 <0>         0.1010
     12 C8         -2.9780   -1.6439   -2.4354 C.3       1 <0>        -0.0591
     13 C9         -3.8720   -2.3130   -1.4427 C.2       1 <0>        -0.1456
     14 C10        -4.1628   -1.9118   -0.1754 C.2       1 <0>        -0.1233
     15 C11        -5.0287   -2.7242    0.5549 C.2       1 <0>        -0.1414
     16 C12        -5.5361   -3.8467   -0.0039 C.2       1 <0>        -0.1698
     17 S1         -4.7983   -3.8137   -1.6306 S.3       1 <0>         0.0497
     18 C13        -3.5509   -0.6276    0.3812 C.3       1 <0>         0.2494
     19 H2         -3.1446   -0.8121    1.3756 H         1 <0>         0.1145
     20 C14        -4.6022    0.4499    0.4514 C.ar      1 <0>        -0.0970
     21 C15        -5.3280    0.7820   -0.6772 C.ar      1 <0>        -0.0997
     22 C16        -6.2960    1.7667   -0.6115 C.ar      1 <0>        -0.1219
     23 C17        -6.5302    2.4272    0.5800 C.ar      1 <0>        -0.0793
     24 C18        -5.8007    2.0988    1.7073 C.ar      1 <0>        -0.1198
     25 C19        -4.8367    1.1101    1.6430 C.ar      1 <0>        -0.0960
     26 C20        -7.5811    3.5050    0.6501 C.3       1 <0>        -0.1175
     27 C21         1.9408   -0.0327    0.0681 C.2       1 <0>         0.5778
     28 O2          1.5923   -1.1875    0.2186 O.2       1 <0>        -0.4897
     29 C22         3.3678    0.3306    0.1927 C.ar      1 <0>        -0.1521
     30 C23         3.7454    1.6729    0.2673 C.ar      1 <0>        -0.0772
     31 C24         5.0779    2.0055    0.3892 C.ar      1 <0>        -0.1430
     32 C25         6.0422    1.0116    0.4257 C.ar      1 <0>         0.0473
     33 C26         5.6743   -0.3212    0.3463 C.ar      1 <0>        -0.0631
     34 C27         4.3441   -0.6664    0.2304 C.ar      1 <0>         0.0172
     35 N3          6.7107   -1.3771    0.3865 N.pl3     1 <0>         0.0275
     36 O3          6.3884   -2.5497    0.3172 O.2       1 <0>        -0.1562
     37 O4          7.8858   -1.0736    0.4888 O.3       1 <0>        -0.1332
     38 Cl1         7.7186    1.4385    0.5720 Cl        1 <0>         0.0053
     39 H3          0.6715    2.3731   -2.4190 H         1 <0>         0.0593
     40 H4          0.1280    3.8907   -1.6642 H         1 <0>         0.0611
     41 H5          1.5080    3.9002   -2.7883 H         1 <0>         0.0652
     42 H6          2.2758    4.0487   -0.4352 H         1 <0>         0.0917
     43 H7          2.8193    2.5310   -1.1900 H         1 <0>         0.0906
     44 H8          2.5926    1.3223    1.6080 H         1 <0>         0.0878
     45 H9          2.8229    3.0817    1.4670 H         1 <0>         0.0876
     46 H10         1.4425    2.4357    2.3865 H         1 <0>         0.0773
     47 H11        -0.4989    1.4429   -1.5528 H         1 <0>         0.1189
     48 H12         0.0558   -0.2447   -1.6650 H         1 <0>         0.1111
     49 H13        -3.6057    0.4172   -2.1864 H         1 <0>         0.0900
     50 H14        -1.8617    0.2147   -2.4958 H         1 <0>         0.0951
     51 H15        -2.0305   -2.1797   -2.4936 H         1 <0>         0.0916
     52 H16        -3.4580   -1.6378   -3.4140 H         1 <0>         0.0965
     53 H17        -5.2943   -2.4575    1.5672 H         1 <0>         0.1318
     54 H18        -6.2111   -4.5740    0.4225 H         1 <0>         0.1881
     55 H19        -5.1417    0.2693   -1.6093 H         1 <0>         0.1229
     56 H20        -6.8661    2.0231   -1.4922 H         1 <0>         0.1223
     57 H21        -5.9837    2.6148    2.6383 H         1 <0>         0.1232
     58 H22        -4.2665    0.8538    2.5237 H         1 <0>         0.1230
     59 H23        -7.1293    4.4689    0.4158 H         1 <0>         0.0714
     60 H24        -8.3711    3.2896   -0.0693 H         1 <0>         0.0671
     61 H25        -8.0031    3.5362    1.6546 H         1 <0>         0.0672
     62 H26         2.9948    2.4487    0.2345 H         1 <0>         0.2361
     63 H27         5.3708    3.0432    0.4515 H         1 <0>         0.1644
     64 H28         4.0584   -1.7061    0.1686 H         1 <0>         0.1720
@<TRIPOS>BOND
     1    1    2 1
     2    1   39 1
     3    1   40 1
     4    1   41 1
     5    2    3 1
     6    2   42 1
     7    2   43 1
     8    3    4 1
     9    3    5 1
    10    3    6 1
    11    5   44 1
    12    5   45 1
    13    5   46 1
    14    6    7 1
    15    6   27 am
    16    7    8 1
    17    7   47 1
    18    7   48 1
    19    8    9 2
    20    8   10 am
    21   10   18 1
    22   10   11 1
    23   11   12 1
    24   11   49 1
    25   11   50 1
    26   12   13 1
    27   12   51 1
    28   12   52 1
    29   13   17 1
    30   13   14 2
    31   14   15 1
    32   14   18 1
    33   15   16 2
    34   15   53 1
    35   16   17 1
    36   16   54 1
    37   18   19 1
    38   18   20 1
    39   20   25 ar
    40   20   21 ar
    41   21   22 ar
    42   21   55 1
    43   22   23 ar
    44   22   56 1
    45   23   24 ar
    46   23   26 1
    47   24   25 ar
    48   24   57 1
    49   25   58 1
    50   26   59 1
    51   26   60 1
    52   26   61 1
    53   27   28 2
    54   27   29 1
    55   29   34 ar
    56   29   30 ar
    57   30   31 ar
    58   30   62 1
    59   31   32 ar
    60   31   63 1
    61   32   33 ar
    62   32   38 1
    63   33   34 ar
    64   33   35 1
    65   34   64 1
    66   35   36 2
    67   35   37 1
@<TRIPOS>MOLECULE
ZINC36046224
   84    89     0     0     0
SMALL
USER_CHARGES

@<TRIPOS>ATOM
      1 C1         -0.8055    1.6595   -0.0849 C.3       1 <0>        -0.1504
      2 C2         -0.4870    0.1881   -0.0173 C.2       1 <0>         0.4442
      3 O1          0.6598   -0.1776    0.0874 O.2       1 <0>        -0.4553
      4 O2         -1.4773   -0.7163   -0.0734 O.3       1 <0>        -0.2440
      5 N1         -1.0208   -2.1041    0.0032 N.3       1 <0>        -0.3085
      6 C3         -1.4800   -2.7416    1.2445 C.3       1 <0>         0.0438
      7 C4         -0.7799   -2.0927    2.4402 C.3       1 <0>        -0.1467
      8 H1         -0.9323   -1.0135    2.4326 H         1 <0>         0.1109
      9 C5          0.7423   -2.4314    2.4341 C.3       1 <0>        -0.0921
     10 H2          1.3591   -1.6272    2.0329 H         1 <0>         0.1236
     11 C6          0.8894   -3.7362    1.6508 C.3       1 <0>        -0.1052
     12 C7          2.2306   -4.4083    1.9413 C.3       1 <0>        -0.0387
     13 H3          3.0565   -3.7597    1.6493 H         1 <0>         0.0816
     14 C8          2.2824   -5.7180    1.1766 C.2       1 <0>        -0.1097
     15 C9          3.1644   -5.9131    0.2279 C.2       1 <0>        -0.1893
     16 C10         1.2824   -6.7912    1.5464 C.3       1 <0>        -0.0834
     17 C11         1.3401   -7.0231    3.0592 C.3       1 <0>        -0.1196
     18 C12         1.1490   -5.6923    3.7910 C.3       1 <0>        -0.1083
     19 C13         2.3002   -4.7316    3.4396 C.3       1 <0>        -0.0502
     20 C14         2.2177   -3.4379    4.2384 C.3       1 <0>        -0.0998
     21 C15         0.9566   -2.6583    3.9443 C.3       1 <0>         0.0820
     22 H4          1.0061   -1.6904    4.4430 H         1 <0>         0.0782
     23 O3         -0.2465   -3.3120    4.3629 O.3       1 <0>        -0.3280
     24 C16        -1.2804   -2.6931    3.7417 C.2       1 <0>         0.4846
     25 O4         -2.4143   -2.6292    4.1539 O.2       1 <0>        -0.4427
     26 C17         3.6343   -5.4145    3.7476 C.3       1 <0>        -0.1449
     27 C18        -1.4574   -2.8676   -1.1734 C.3       1 <0>         0.0496
     28 C19        -0.7602   -2.3235   -2.4219 C.3       1 <0>        -0.1470
     29 H5         -0.9258   -1.2501   -2.5147 H         1 <0>         0.1107
     30 C20        -1.2611   -3.0676   -3.6976 C.3       1 <0>        -0.1096
     31 H6         -2.0134   -2.5078   -4.2532 H         1 <0>         0.1138
     32 C21        -1.7665   -4.4323   -3.2288 C.3       1 <0>        -0.1151
     33 C22        -1.8647   -5.4165   -4.3936 C.3       1 <0>        -0.0407
     34 H7         -2.5642   -5.0524   -5.1461 H         1 <0>         0.0813
     35 C23        -2.3170   -6.7578   -3.8468 C.2       1 <0>        -0.1101
     36 C24        -3.4653   -7.2801   -4.2002 C.2       1 <0>        -0.1943
     37 C25        -1.3981   -7.4723   -2.8806 C.3       1 <0>        -0.0857
     38 C26        -0.0003   -7.5624   -3.5000 C.3       1 <0>        -0.1193
     39 C27         0.4695   -6.1657   -3.9143 C.3       1 <0>        -0.1079
     40 C28        -0.4663   -5.5986   -4.9981 C.3       1 <0>        -0.0489
     41 C29         0.0315   -4.2608   -5.5281 C.3       1 <0>        -0.1018
     42 C30         0.0755   -3.1963   -4.4559 C.3       1 <0>         0.0902
     43 H8          0.3171   -2.2357   -4.9108 H         1 <0>         0.0774
     44 O5          1.0304   -3.4490   -3.4194 O.3       1 <0>        -0.3335
     45 C31         0.7255   -2.6326   -2.3808 C.2       1 <0>         0.4721
     46 O6          1.5060   -2.2187   -1.5567 O.2       1 <0>        -0.3941
     47 C32        -0.5439   -6.5894   -6.1613 C.3       1 <0>        -0.1461
     48 H9          0.1186    2.2344   -0.0249 H         1 <0>         0.1028
     49 H10        -1.3098    1.8792   -1.0259 H         1 <0>         0.0947
     50 H11        -1.4558    1.9291    0.7474 H         1 <0>         0.0956
     51 H12        -2.5581   -2.6136    1.3414 H         1 <0>         0.0681
     52 H13        -1.2414   -3.8048    1.2167 H         1 <0>         0.1150
     53 H14         0.0825   -4.4135    1.9305 H         1 <0>         0.0629
     54 H15         0.8209   -3.5221    0.5842 H         1 <0>         0.0887
     55 H16         3.8705   -5.1348   -0.0213 H         1 <0>         0.0968
     56 H17         3.1855   -6.8522   -0.3051 H         1 <0>         0.0944
     57 H18         0.2800   -6.4689    1.2645 H         1 <0>         0.0653
     58 H19         1.5302   -7.7162    1.0256 H         1 <0>         0.0655
     59 H20         0.5494   -7.7144    3.3507 H         1 <0>         0.0614
     60 H21         2.3085   -7.4474    3.3245 H         1 <0>         0.0671
     61 H22         0.2017   -5.2451    3.4900 H         1 <0>         0.0721
     62 H23         1.1422   -5.8672    4.8668 H         1 <0>         0.0617
     63 H24         2.2330   -3.6773    5.3017 H         1 <0>         0.0771
     64 H25         3.0856   -2.8216    4.0039 H         1 <0>         0.0915
     65 H26         4.4540   -4.7480    3.4794 H         1 <0>         0.0537
     66 H27         3.6871   -5.6456    4.8115 H         1 <0>         0.0540
     67 H28         3.7121   -6.3363    3.1712 H         1 <0>         0.0643
     68 H29        -1.1986   -3.9181   -1.0414 H         1 <0>         0.1106
     69 H30        -2.5370   -2.7712   -1.2890 H         1 <0>         0.0745
     70 H31        -1.0794   -4.8303   -2.4820 H         1 <0>         0.0777
     71 H32        -2.7518   -4.3127   -2.7782 H         1 <0>         0.0720
     72 H33        -4.1075   -6.7548   -4.8916 H         1 <0>         0.0968
     73 H34        -3.7698   -8.2359   -3.8001 H         1 <0>         0.0972
     74 H35        -1.3476   -6.9152   -1.9451 H         1 <0>         0.0684
     75 H36        -1.7781   -8.4759   -2.6897 H         1 <0>         0.0667
     76 H37         0.6943   -7.9770   -2.7695 H         1 <0>         0.0631
     77 H38        -0.0329   -8.2092   -4.3768 H         1 <0>         0.0664
     78 H39         0.4574   -5.5063   -3.0466 H         1 <0>         0.0756
     79 H40         1.4833   -6.2262   -4.3102 H         1 <0>         0.0628
     80 H41         1.0386   -4.3902   -5.9247 H         1 <0>         0.0793
     81 H42        -0.6248   -3.9336   -6.3344 H         1 <0>         0.0897
     82 H43        -1.2231   -6.2042   -6.9219 H         1 <0>         0.0532
     83 H44         0.4482   -6.7212   -6.5932 H         1 <0>         0.0557
     84 H45        -0.9122   -7.5487   -5.7976 H         1 <0>         0.0647
@<TRIPOS>BOND
     1    1    2 1
     2    1   48 1
     3    1   49 1
     4    1   50 1
     5    2    3 2
     6    2    4 1
     7    4    5 1
     8    5    6 1
     9    5   27 1
    10    6    7 1
    11    6   51 1
    12    6   52 1
    13    7    8 1
    14    7   24 1
    15    7    9 1
    16    9   10 1
    17    9   21 1
    18    9   11 1
    19   11   12 1
    20   11   53 1
    21   11   54 1
    22   12   13 1
    23   12   19 1
    24   12   14 1
    25   14   15 2
    26   14   16 1
    27   15   55 1
    28   15   56 1
    29   16   17 1
    30   16   57 1
    31   16   58 1
    32   17   18 1
    33   17   59 1
    34   17   60 1
    35   18   19 1
    36   18   61 1
    37   18   62 1
    38   19   20 1
    39   19   26 1
    40   20   21 1
    41   20   63 1
    42   20   64 1
    43   21   22 1
    44   21   23 1
    45   23   24 1
    46   24   25 2
    47   26   65 1
    48   26   66 1
    49   26   67 1
    50   27   28 1
    51   27   68 1
    52   27   69 1
    53   28   29 1
    54   28   45 1
    55   28   30 1
    56   30   31 1
    57   30   42 1
    58   30   32 1
    59   32   33 1
    60   32   70 1
    61   32   71 1
    62   33   34 1
    63   33   40 1
    64   33   35 1
    65   35   36 2
    66   35   37 1
    67   36   72 1
    68   36   73 1
    69   37   38 1
    70   37   74 1
    71   37   75 1
    72   38   39 1
    73   38   76 1
    74   38   77 1
    75   39   40 1
    76   39   78 1
    77   39   79 1
    78   40   41 1
    79   40   47 1
    80   41   42 1
    81   41   80 1
    82   41   81 1
    83   42   43 1
    84   42   44 1
    85   44   45 1
    86   45   46 2
    87   47   82 1
    88   47   83 1
    89   47   84 1
@<TRIPOS>MOLECULE
ZINC40004510
   57    62     0     0     0
SMALL
USER_CHARGES

@<TRIPOS>ATOM
      1 C1         -0.0187    1.5258    0.0104 C.3       1 <0>        -0.1539
      2 C2          0.0021   -0.0041    0.0020 C.3       1 <0>         0.0533
      3 O1          0.6709   -0.4649   -1.1737 O.3       1 <0>        -0.3135
      4 C3          0.7768   -1.8101   -1.3361 C.ar      1 <0>         0.1338
      5 C4          0.2418   -2.6683   -0.3848 C.ar      1 <0>        -0.1917
      6 C5          0.3473   -4.0371   -0.5453 C.ar      1 <0>        -0.0739
      7 C6          0.9848   -4.5590   -1.6529 C.ar      1 <0>        -0.1334
      8 C7          1.5245   -3.7044   -2.6133 C.ar      1 <0>         0.0094
      9 C8          1.4131   -2.3244   -2.4533 C.ar      1 <0>        -0.1158
     10 C9          2.2095   -4.2619   -3.8035 C.2       1 <0>         0.1744
     11 C10         3.0227   -5.4834   -3.8504 C.2       1 <0>        -0.2336
     12 C11         3.4571   -5.6114   -5.1575 C.2       1 <0>         0.1193
     13 N1          2.9644   -4.5730   -5.8580 N.pl3     1 <0>        -0.2944
     14 N2          2.1993   -3.7594   -5.0178 N.2       1 <0>        -0.2584
     15 C12         3.1811   -4.3452   -7.2229 C.ar      1 <0>         0.1365
     16 C13         3.9534   -5.2316   -7.9622 C.ar      1 <0>        -0.1340
     17 C14         4.1653   -5.0042   -9.3079 C.ar      1 <0>        -0.0907
     18 C15         3.6095   -3.8953   -9.9191 C.ar      1 <0>        -0.1166
     19 C16         2.8404   -3.0106   -9.1856 C.ar      1 <0>        -0.0953
     20 C17         2.6196   -3.2357   -7.8410 C.ar      1 <0>        -0.1075
     21 C18         3.3162   -6.3871   -2.7342 C.2       1 <0>         0.1519
     22 C19         4.0909   -7.4869   -2.9352 C.2       1 <0>        -0.2570
     23 C20         4.5069   -8.5219   -1.9824 C.2       1 <0>         0.5717
     24 O2          4.1591   -8.4797   -0.8163 O.2       1 <0>        -0.4359
     25 N3          5.2819   -9.5156   -2.4380 N.am      1 <0>        -0.4148
     26 C21         5.6449   -9.5185   -3.7551 C.2       1 <0>         0.2732
     27 S1          4.8723   -8.0682   -4.4335 S.3       1 <0>         0.1389
     28 N4          6.3922  -10.5575   -4.0028 N.2       1 <0>        -0.4597
     29 C22         6.5484  -11.2687   -2.8765 C.2       1 <0>         0.3041
     30 N5          5.8975  -10.6806   -1.9031 N.2       1 <0>        -0.2523
     31 C23         7.3328  -12.5218   -2.7525 C.ar      1 <0>        -0.0404
     32 C24         7.4160  -13.1756   -1.5245 C.ar      1 <0>        -0.0453
     33 C25         8.1466  -14.3406   -1.4137 C.ar      1 <0>        -0.1570
     34 C26         8.7970  -14.8609   -2.5210 C.ar      1 <0>         0.1259
     35 C27         8.7173  -14.2140   -3.7437 C.ar      1 <0>        -0.1578
     36 C28         7.9838  -13.0517   -3.8650 C.ar      1 <0>        -0.0376
     37 F1          9.5113  -16.0020   -2.4081 F         1 <0>        -0.1320
     38 H1          1.0039    1.9031    0.0027 H         1 <0>         0.0673
     39 H2         -0.5459    1.8868   -0.8726 H         1 <0>         0.0673
     40 H3         -0.5289    1.8773    0.9072 H         1 <0>         0.0803
     41 H4          0.5293   -0.3651    0.8851 H         1 <0>         0.0643
     42 H5         -1.0205   -0.3814    0.0098 H         1 <0>         0.0641
     43 H6         -0.2580   -2.2650    0.4836 H         1 <0>         0.1334
     44 H7         -0.0700   -4.7001    0.1981 H         1 <0>         0.1356
     45 H8          1.0659   -5.6290   -1.7752 H         1 <0>         0.1316
     46 H9          1.8258   -1.6581   -3.1963 H         1 <0>         0.1381
     47 H10         4.0806   -6.4029   -5.5463 H         1 <0>         0.1845
     48 H11         4.3880   -6.0977   -7.4853 H         1 <0>         0.1318
     49 H12         4.7660   -5.6930   -9.8833 H         1 <0>         0.1388
     50 H13         3.7766   -3.7197  -10.9716 H         1 <0>         0.1336
     51 H14         2.4082   -2.1450   -9.6658 H         1 <0>         0.1367
     52 H15         2.0149   -2.5469   -7.2697 H         1 <0>         0.1415
     53 H16         2.9174   -6.1797   -1.7522 H         1 <0>         0.1738
     54 H17         6.9096  -12.7706   -0.6608 H         1 <0>         0.1446
     55 H18         8.2119  -14.8477   -0.4624 H         1 <0>         0.1462
     56 H19         9.2264  -14.6225   -4.6041 H         1 <0>         0.1468
     57 H20         7.9183  -12.5507   -4.8195 H         1 <0>         0.1497
@<TRIPOS>BOND
     1    1    2 1
     2    1   38 1
     3    1   39 1
     4    1   40 1
     5    2    3 1
     6    2   41 1
     7    2   42 1
     8    3    4 1
     9    4    9 ar
    10    4    5 ar
    11    5    6 ar
    12    5   43 1
    13    6    7 ar
    14    6   44 1
    15    7    8 ar
    16    7   45 1
    17    8    9 ar
    18    8   10 1
    19    9   46 1
    20   10   14 2
    21   10   11 1
    22   11   12 2
    23   11   21 1
    24   12   13 1
    25   12   47 1
    26   13   14 1
    27   13   15 1
    28   15   20 ar
    29   15   16 ar
    30   16   17 ar
    31   16   48 1
    32   17   18 ar
    33   17   49 1
    34   18   19 ar
    35   18   50 1
    36   19   20 ar
    37   19   51 1
    38   20   52 1
    39   21   22 2
    40   21   53 1
    41   22   27 1
    42   22   23 1
    43   23   24 2
    44   23   25 am
    45   25   30 1
    46   25   26 1
    47   26   27 1
    48   26   28 2
    49   28   29 1
    50   29   30 2
    51   29   31 1
    52   31   36 ar
    53   31   32 ar
    54   32   33 ar
    55   32   54 1
    56   33   34 ar
    57   33   55 1
    58   34   35 ar
    59   34   37 1
    60   35   36 ar
    61   35   56 1
    62   36   57 1
@<TRIPOS>MOLECULE
ZINC40056749
   64    68     0     0     0
SMALL
USER_CHARGES

@<TRIPOS>ATOM
      1 C1         -0.0184    1.5028    0.0103 C.3       1 <0>        -0.1053
      2 C2          0.0021   -0.0041    0.0020 C.ar      1 <0>         0.1639
      3 C3          0.0056   -0.6792   -1.2030 C.ar      1 <0>        -0.1908
      4 C4          0.0249   -2.0671   -1.2044 C.ar      1 <0>        -0.0430
      5 C5          0.0401   -2.7284    0.0112 C.ar      1 <0>        -0.1997
      6 C6          0.0354   -1.9845    1.1858 C.ar      1 <0>         0.3805
      7 N1          0.0219   -0.6611    1.1455 N.ar      1 <0>        -0.4976
      8 N2          0.0505   -2.6372    2.4160 N.am      1 <0>        -0.5238
      9 C7         -0.0617   -1.9964    3.7365 C.3       1 <0>         0.2361
     10 H1          0.7638   -1.3009    3.8883 H         1 <0>         0.1295
     11 C8          0.0088   -3.1053    4.7343 C.2       1 <0>        -0.2316
     12 C9         -0.0382   -3.0910    6.1999 C.2       1 <0>         0.4587
     13 O1         -0.3265   -2.1008    6.8485 O.2       1 <0>        -0.4190
     14 C10         0.2989   -4.3982    6.8183 C.ar      1 <0>        -0.2082
     15 C11         0.4927   -4.4980    8.1959 C.ar      1 <0>        -0.0151
     16 C12         0.8101   -5.7182    8.7521 C.ar      1 <0>        -0.0654
     17 C13         0.9362   -6.8401    7.9426 C.ar      1 <0>        -0.0076
     18 C14         0.7454   -6.7530    6.5824 C.ar      1 <0>        -0.1256
     19 C15         0.4209   -5.5300    5.9958 C.ar      1 <0>         0.1534
     20 O2          0.2292   -5.4748    4.6577 O.3       1 <0>        -0.1759
     21 C16         0.1436   -4.2775    4.0453 C.2       1 <0>         0.0879
     22 C17         0.1646   -3.9675    2.6058 C.2       1 <0>         0.5785
     23 O3          0.2715   -4.7904    1.7183 O.2       1 <0>        -0.4623
     24 C18         1.2866   -8.1688    8.5615 C.3       1 <0>        -0.1291
     25 Cl1         1.0532   -5.8533   10.4657 Cl        1 <0>        -0.0432
     26 C19        -1.3785   -1.2729    3.8531 C.ar      1 <0>        -0.0820
     27 C20        -2.5229   -1.8326    3.3160 C.ar      1 <0>        -0.0959
     28 C21        -3.7332   -1.1728    3.4204 C.ar      1 <0>        -0.1728
     29 C22        -3.8014    0.0519    4.0648 C.ar      1 <0>         0.1158
     30 C23        -2.6496    0.6150    4.6059 C.ar      1 <0>         0.1041
     31 C24        -1.4405   -0.0538    4.5020 C.ar      1 <0>        -0.1285
     32 O4         -2.7114    1.8169    5.2393 O.3       1 <0>        -0.3034
     33 C25        -1.4896    2.3340    5.7701 C.3       1 <0>         0.0245
     34 O5         -4.9912    0.7024    4.1680 O.3       1 <0>        -0.2989
     35 C26        -6.1315    0.0650    3.5888 C.3       1 <0>         0.0614
     36 C27        -7.3683    0.9397    3.8028 C.3       1 <0>        -0.0938
     37 C28        -7.2041    2.2521    3.0336 C.3       1 <0>        -0.1473
     38 C29        -8.6087    0.2023    3.2942 C.3       1 <0>        -0.1469
     39 H2          1.0042    1.8801    0.0026 H         1 <0>         0.0815
     40 H3         -0.5455    1.8639   -0.8728 H         1 <0>         0.0791
     41 H4         -0.5286    1.8543    0.9071 H         1 <0>         0.0788
     42 H5         -0.0069   -0.1328   -2.1345 H         1 <0>         0.1400
     43 H6          0.0277   -2.6184   -2.1331 H         1 <0>         0.1435
     44 H7          0.0549   -3.8077    0.0470 H         1 <0>         0.1615
     45 H8          0.3950   -3.6241    8.8229 H         1 <0>         0.1577
     46 H9          0.8474   -7.6348    5.9672 H         1 <0>         0.1583
     47 H10         0.3720   -8.6933    8.8381 H         1 <0>         0.0894
     48 H11         1.8460   -8.7680    7.8430 H         1 <0>         0.0821
     49 H12         1.8953   -8.0061    9.4509 H         1 <0>         0.0837
     50 H13        -2.4711   -2.7871    2.8135 H         1 <0>         0.1150
     51 H14        -4.6256   -1.6119    2.9993 H         1 <0>         0.1351
     52 H15        -0.5458    0.3793    4.9243 H         1 <0>         0.1387
     53 H16        -1.0884    1.6360    6.5049 H         1 <0>         0.0577
     54 H17        -0.7693    2.4653    4.9625 H         1 <0>         0.0553
     55 H18        -1.6790    3.2953    6.2478 H         1 <0>         0.1009
     56 H19        -5.9659   -0.0751    2.5206 H         1 <0>         0.0614
     57 H20        -6.2856   -0.9044    4.0628 H         1 <0>         0.0610
     58 H21        -7.4829    1.1533    4.8655 H         1 <0>         0.0822
     59 H22        -8.0853    2.8753    3.1860 H         1 <0>         0.0573
     60 H23        -6.3205    2.7774    3.3959 H         1 <0>         0.0639
     61 H24        -7.0896    2.0385    1.9709 H         1 <0>         0.0531
     62 H25        -8.7257   -0.7326    3.8422 H         1 <0>         0.0576
     63 H26        -9.4899    0.8255    3.4467 H         1 <0>         0.0659
     64 H27        -8.4942   -0.0113    2.2315 H         1 <0>         0.0577
@<TRIPOS>BOND
     1    1    2 1
     2    1   39 1
     3    1   40 1
     4    1   41 1
     5    2    7 ar
     6    2    3 ar
     7    3    4 ar
     8    3   42 1
     9    4    5 ar
    10    4   43 1
    11    5    6 ar
    12    5   44 1
    13    6    7 ar
    14    6    8 1
    15    8   22 am
    16    8    9 1
    17    9   10 1
    18    9   11 1
    19    9   26 1
    20   11   21 2
    21   11   12 1
    22   12   13 2
    23   12   14 1
    24   14   19 ar
    25   14   15 ar
    26   15   16 ar
    27   15   45 1
    28   16   17 ar
    29   16   25 1
    30   17   18 ar
    31   17   24 1
    32   18   19 ar
    33   18   46 1
    34   19   20 1
    35   20   21 1
    36   21   22 1
    37   22   23 2
    38   24   47 1
    39   24   48 1
    40   24   49 1
    41   26   31 ar
    42   26   27 ar
    43   27   28 ar
    44   27   50 1
    45   28   29 ar
    46   28   51 1
    47   29   30 ar
    48   29   34 1
    49   30   31 ar
    50   30   32 1
    51   31   52 1
    52   32   33 1
    53   33   53 1
    54   33   54 1
    55   33   55 1
    56   34   35 1
    57   35   36 1
    58   35   56 1
    59   35   57 1
    60   36   37 1
    61   36   38 1
    62   36   58 1
    63   37   59 1
    64   37   60 1
    65   37   61 1
    66   38   62 1
    67   38   63 1
    68   38   64 1
@<TRIPOS>MOLECULE
ZINC01778585
   63    67     0     0     0
SMALL
USER_CHARGES
ethyl 6-methyl-3-[2-(methylBLAHyl)sulfanylacetyl]amino-4,5,6,7-tetrahydrobenzothiophene-2-carboxylate
@<TRIPOS>ATOM
      1 C1          5.5668    0.1345    1.2578 C.3       1 <0>        -0.1531
      2 C2          4.8278   -1.1400    1.6707 C.3       1 <0>         0.0633
      3 O1          3.8842   -1.4930    0.6573 O.3       1 <0>        -0.3485
      4 C3          3.1442   -2.6019    0.8686 C.2       1 <0>         0.5606
      5 O2          3.2973   -3.2508    1.8868 O.2       1 <0>        -0.5063
      6 C4          2.1907   -3.0099   -0.0936 C.2       1 <0>        -0.2920
      7 C5          1.2568   -4.0385   -0.0220 C.2       1 <0>         0.2309
      8 C6          0.4228   -4.2363   -1.1186 C.2       1 <0>        -0.1397
      9 C7          0.5939   -3.3975   -2.1801 C.2       1 <0>        -0.1360
     10 S1          1.8710   -2.3391   -1.7161 S.3       1 <0>         0.2176
     11 C8         -0.1705   -3.4048   -3.4687 C.3       1 <0>        -0.0426
     12 C9         -0.9304   -4.7348   -3.5739 C.3       1 <0>        -0.0860
     13 H1         -0.2281   -5.5450   -3.7700 H         1 <0>         0.0796
     14 C10        -1.6557   -4.9931   -2.2503 C.3       1 <0>        -0.1179
     15 C11        -0.6407   -5.3308   -1.1579 C.3       1 <0>        -0.0616
     16 C12        -1.9509   -4.6540   -4.7110 C.3       1 <0>        -0.1477
     17 N1          1.1592   -4.8452    1.1120 N.am      1 <0>        -0.6478
     18 C13         1.0316   -6.1804    0.9802 C.2       1 <0>         0.5290
     19 O3          1.0615   -6.6866   -0.1215 O.2       1 <0>        -0.4929
     20 C14         0.8517   -7.0443    2.2018 C.3       1 <0>        -0.1644
     21 S2          0.7106   -8.7775    1.6996 S.3       1 <0>         0.0743
     22 C15         0.5148   -9.5381    3.2769 C.ar      1 <0>         0.1893
     23 C16         0.3558  -10.9486    3.3828 C.ar      1 <0>        -0.1677
     24 C17         0.3244  -11.9498    2.3155 C.2       1 <0>        -0.0897
     25 C18         0.1600  -13.2355    2.6876 C.2       1 <0>        -0.1299
     26 S3          0.0535  -13.1950    4.4569 S.3       1 <0>         0.1205
     27 C19         0.2142  -11.4446    4.6940 C.ar      1 <0>         0.1290
     28 N2          0.2190  -10.6405    5.7398 N.ar      1 <0>        -0.4844
     29 C20         0.3642   -9.3393    5.5786 C.ar      1 <0>         0.3313
     30 N3          0.5083   -8.8049    4.3793 N.ar      1 <0>        -0.5378
     31 C21         0.0946  -14.4373    1.7950 C.3       1 <0>        -0.0381
     32 C22        -0.1292  -13.9589    0.3533 C.3       1 <0>        -0.0869
     33 H2         -1.1500  -13.5925    0.2439 H         1 <0>         0.0789
     34 C23         0.8578  -12.8271    0.0528 C.3       1 <0>        -0.1147
     35 C24         0.4699  -11.5767    0.8427 C.3       1 <0>        -0.0672
     36 C25         0.1071  -15.1173   -0.6179 C.3       1 <0>        -0.1477
     37 H3          6.2865    0.4038    2.0308 H         1 <0>         0.0817
     38 H4          6.0907   -0.0377    0.3176 H         1 <0>         0.0677
     39 H5          4.8495    0.9454    1.1308 H         1 <0>         0.0677
     40 H6          4.3038   -0.9677    2.6109 H         1 <0>         0.0696
     41 H7          5.5450   -1.9509    1.7978 H         1 <0>         0.0694
     42 H8          0.5208   -3.3098   -4.3061 H         1 <0>         0.0901
     43 H9         -0.8781   -2.5759   -3.4803 H         1 <0>         0.0935
     44 H10        -2.2135   -4.1017   -1.9632 H         1 <0>         0.0625
     45 H11        -2.3467   -5.8271   -2.3729 H         1 <0>         0.0716
     46 H12        -1.1461   -5.3839   -0.1935 H         1 <0>         0.0624
     47 H13        -0.1725   -6.2901   -1.3782 H         1 <0>         0.1150
     48 H14        -2.6489   -3.8399   -4.5156 H         1 <0>         0.0570
     49 H15        -1.4325   -4.4701   -5.6521 H         1 <0>         0.0583
     50 H16        -2.4983   -5.5943   -4.7754 H         1 <0>         0.0603
     51 H17         1.1832   -4.4451    1.9953 H         1 <0>         0.4222
     52 H18         1.7120   -6.9258    2.8605 H         1 <0>         0.1304
     53 H19        -0.0538   -6.7440    2.7291 H         1 <0>         0.1283
     54 H20         0.3655   -8.6967    6.4466 H         1 <0>         0.2114
     55 H21        -0.7324  -15.0777    2.1017 H         1 <0>         0.0885
     56 H22         1.0308  -14.9921    1.8564 H         1 <0>         0.0914
     57 H23         0.8376  -12.6026   -1.0137 H         1 <0>         0.0765
     58 H24         1.8630  -13.1380    0.3374 H         1 <0>         0.0689
     59 H25        -0.4774  -11.1879    0.4691 H         1 <0>         0.0870
     60 H26         1.2464  -10.8197    0.7327 H         1 <0>         0.0871
     61 H27         1.1265  -15.4857   -0.5028 H         1 <0>         0.0581
     62 H28        -0.5964  -15.9215   -0.4021 H         1 <0>         0.0587
     63 H29        -0.0406  -14.7700   -1.6404 H         1 <0>         0.0610
@<TRIPOS>BOND
     1    1    2 1
     2    1   37 1
     3    1   38 1
     4    1   39 1
     5    2    3 1
     6    2   40 1
     7    2   41 1
     8    3    4 1
     9    4    5 2
    10    4    6 1
    11    6   10 1
    12    6    7 2
    13    7    8 1
    14    7   17 1
    15    8   15 1
    16    8    9 2
    17    9   10 1
    18    9   11 1
    19   11   12 1
    20   11   42 1
    21   11   43 1
    22   12   13 1
    23   12   14 1
    24   12   16 1
    25   14   15 1
    26   14   44 1
    27   14   45 1
    28   15   46 1
    29   15   47 1
    30   16   48 1
    31   16   49 1
    32   16   50 1
    33   17   18 am
    34   17   51 1
    35   18   19 2
    36   18   20 1
    37   20   21 1
    38   20   52 1
    39   20   53 1
    40   21   22 1
    41   22   30 ar
    42   22   23 ar
    43   23   27 ar
    44   23   24 1
    45   24   35 1
    46   24   25 2
    47   25   26 1
    48   25   31 1
    49   26   27 1
    50   27   28 ar
    51   28   29 ar
    52   29   30 ar
    53   29   54 1
    54   31   32 1
    55   31   55 1
    56   31   56 1
    57   32   33 1
    58   32   34 1
    59   32   36 1
    60   34   35 1
    61   34   57 1
    62   34   58 1
    63   35   59 1
    64   35   60 1
    65   36   61 1
    66   36   62 1
    67   36   63 1
@<TRIPOS>MOLECULE
ZINC02359351
   49    52     0     0     0
SMALL
USER_CHARGES
2-[[4,5-bis(4-chlorophenyl)-1,2,4-triazol-3-yl]sulfanyl]-N-[(3-fluorophenyl)methyleneamino]acetamide
@<TRIPOS>ATOM
      1 C1        -11.2704    1.3664    0.0683 C.ar      1 <0>        -0.0935
      2 C2        -10.0347    0.7530    0.0587 C.ar      1 <0>        -0.0989
      3 C3         -8.8728    1.5282    0.0566 C.ar      1 <0>        -0.0296
      4 C4         -8.9701    2.9214    0.0700 C.ar      1 <0>        -0.1156
      5 C5        -10.2136    3.5231    0.0737 C.ar      1 <0>         0.0966
      6 C6        -11.3617    2.7465    0.0757 C.ar      1 <0>        -0.1368
      7 F1        -10.3108    4.8706    0.0814 F         1 <0>        -0.1354
      8 C7         -7.5489    0.8782    0.0464 C.2       1 <0>         0.1147
      9 N1         -6.4713    1.6010    0.0444 N.2       1 <0>        -0.2230
     10 N2         -5.2137    0.9837    0.0347 N.am      1 <0>        -0.5769
     11 C8         -4.0944    1.7344    0.0327 C.2       1 <0>         0.5534
     12 O1         -4.1759    2.9447    0.0393 O.2       1 <0>        -0.4830
     13 C9         -2.7417    1.0704    0.0223 C.3       1 <0>        -0.1508
     14 S1         -1.4481    2.3363    0.0219 S.3       1 <0>         0.1080
     15 C10        -0.0157    1.3102    0.0092 C.2       1 <0>         0.1527
     16 N3          0.0021   -0.0041    0.0020 N.2       1 <0>        -0.2839
     17 N4          1.2143   -0.4300   -0.0118 N.2       1 <0>        -0.2569
     18 C11         2.0474    0.5848   -0.0143 C.2       1 <0>         0.2376
     19 N5          1.2855    1.7326   -0.0009 N.pl3     1 <0>        -0.4139
     20 C12         1.7471    3.0566    0.0014 C.ar      1 <0>         0.0999
     21 C13         2.4497    3.5498   -1.0897 C.ar      1 <0>        -0.0835
     22 C14         2.8984    4.8561   -1.0875 C.ar      1 <0>        -0.0952
     23 C15         2.6584    5.6694    0.0061 C.ar      1 <0>        -0.0168
     24 C16         1.9629    5.1784    1.0970 C.ar      1 <0>        -0.0928
     25 C17         1.5072    3.8746    1.0971 C.ar      1 <0>        -0.0859
     26 Cl1         3.2304    7.3085    0.0091 Cl        1 <0>        -0.0469
     27 C18         3.5234    0.5099   -0.0284 C.ar      1 <0>        -0.0195
     28 C19         4.2853    1.6388    0.2777 C.ar      1 <0>        -0.0932
     29 C20         5.6624    1.5616    0.2671 C.ar      1 <0>        -0.1054
     30 C21         6.2894    0.3700   -0.0561 C.ar      1 <0>        -0.0185
     31 C22         5.5390   -0.7521   -0.3654 C.ar      1 <0>        -0.1073
     32 C23         4.1612   -0.6885   -0.3535 C.ar      1 <0>        -0.0588
     33 Cl2         8.0231    0.2825   -0.0743 Cl        1 <0>        -0.0580
     34 H1        -12.1690    0.7673    0.0703 H         1 <0>         0.1401
     35 H2         -9.9658   -0.3248    0.0533 H         1 <0>         0.1374
     36 H3         -8.0756    3.5267    0.0729 H         1 <0>         0.1479
     37 H4        -12.3318    3.2211    0.0835 H         1 <0>         0.1394
     38 H5         -7.4763   -0.1993    0.0405 H         1 <0>         0.1298
     39 H6         -5.1485    0.0159    0.0295 H         1 <0>         0.3926
     40 H7         -2.6466    0.4535   -0.8714 H         1 <0>         0.1346
     41 H8         -2.6373    0.4445    0.9085 H         1 <0>         0.1347
     42 H9          2.6414    2.9140   -1.9413 H         1 <0>         0.1430
     43 H10         3.4411    5.2416   -1.9379 H         1 <0>         0.1506
     44 H11         1.7765    5.8152    1.9492 H         1 <0>         0.1513
     45 H12         0.9650    3.4917    1.9490 H         1 <0>         0.1454
     46 H13         3.7974    2.5699    0.5256 H         1 <0>         0.1356
     47 H14         6.2529    2.4334    0.5074 H         1 <0>         0.1416
     48 H15         6.0336   -1.6787   -0.6167 H         1 <0>         0.1448
     49 H16         3.5771   -1.5641   -0.5955 H         1 <0>         0.1481
@<TRIPOS>BOND
     1    1    6 ar
     2    1    2 ar
     3    1   34 1
     4    2    3 ar
     5    2   35 1
     6    3    4 ar
     7    3    8 1
     8    4    5 ar
     9    4   36 1
    10    5    6 ar
    11    5    7 1
    12    6   37 1
    13    8    9 2
    14    8   38 1
    15    9   10 1
    16   10   11 am
    17   10   39 1
    18   11   12 2
    19   11   13 1
    20   13   14 1
    21   13   40 1
    22   13   41 1
    23   14   15 1
    24   15   19 1
    25   15   16 2
    26   16   17 1
    27   17   18 2
    28   18   19 1
    29   18   27 1
    30   19   20 1
    31   20   25 ar
    32   20   21 ar
    33   21   22 ar
    34   21   42 1
    35   22   23 ar
    36   22   43 1
    37   23   24 ar
    38   23   26 1
    39   24   25 ar
    40   24   44 1
    41   25   45 1
    42   27   32 ar
    43   27   28 ar
    44   28   29 ar
    45   28   46 1
    46   29   30 ar
    47   29   47 1
    48   30   31 ar
    49   30   33 1
    50   31   32 ar
    51   31   48 1
    52   32   49 1
@<TRIPOS>MOLECULE
ZINC02734292
   60    63     0     0     0
SMALL
USER_CHARGES
isopropyl 4-cyano-5-[[2-(4-ethylphenyl)quinoline-4-carbonyl]amino]-3-methyl-thiophene-2-carboxylate
@<TRIPOS>ATOM
      1 C1          1.7209  -14.7557   -3.2916 C.3       1 <0>        -0.1494
      2 C2          2.2860  -14.4072   -1.9132 C.3       1 <0>        -0.0917
      3 C3          1.4918  -13.2739   -1.3166 C.ar      1 <0>        -0.0611
      4 C4          0.3814  -13.5460   -0.5376 C.ar      1 <0>        -0.1225
      5 C5         -0.3502  -12.5122    0.0106 C.ar      1 <0>        -0.0679
      6 C6          0.0319  -11.1919   -0.2215 C.ar      1 <0>        -0.0675
      7 C7          1.1486  -10.9237   -1.0116 C.ar      1 <0>        -0.0948
      8 C8          1.8757  -11.9656   -1.5503 C.ar      1 <0>        -0.1199
      9 C9         -0.7502  -10.0767    0.3648 C.ar      1 <0>         0.2025
     10 C10        -0.3417   -8.7581    0.1140 C.ar      1 <0>        -0.1139
     11 C11        -1.0654   -7.7057    0.6571 C.ar      1 <0>        -0.0761
     12 C12        -2.2283   -8.0438    1.4784 C.ar      1 <0>        -0.0615
     13 C13        -3.0163   -7.0526    2.0734 C.ar      1 <0>        -0.1046
     14 C14        -4.0912   -7.4116    2.8315 C.ar      1 <0>        -0.1033
     15 C15        -4.4148   -8.7534    3.0212 C.ar      1 <0>        -0.0955
     16 C16        -3.6769   -9.7423    2.4467 C.ar      1 <0>        -0.0902
     17 C17        -2.5562   -9.4106    1.6626 C.ar      1 <0>         0.1325
     18 N1         -1.8035  -10.3585    1.1020 N.ar      1 <0>        -0.4418
     19 C18        -0.6736   -6.3000    0.4205 C.2       1 <0>         0.5677
     20 O1         -1.3816   -5.3963    0.8198 O.2       1 <0>        -0.4763
     21 N2          0.4687   -6.0205   -0.2379 N.am      1 <0>        -0.6214
     22 C19         0.8347   -4.7075   -0.4589 C.2       1 <0>         0.1119
     23 C20         1.9689   -4.2197   -1.1144 C.2       1 <0>        -0.1443
     24 C21         2.1205   -2.8467   -1.2119 C.2       1 <0>         0.0429
     25 C22         1.1357   -2.0577   -0.6518 C.2       1 <0>        -0.2952
     26 S1          0.0037   -3.2625    0.0156 S.3       1 <0>         0.3514
     27 C23         1.0466   -0.5992   -0.6108 C.2       1 <0>         0.5622
     28 O2          1.9210    0.0782   -1.1176 O.2       1 <0>        -0.4922
     29 O3         -0.0054   -0.0041   -0.0108 O.3       1 <0>        -0.3472
     30 C24        -0.0277    1.4247   -0.0079 C.3       1 <0>         0.0808
     31 C25        -0.7540    1.9260   -1.2578 C.3       1 <0>        -0.1740
     32 C26        -0.7597    1.9208    1.2407 C.3       1 <0>        -0.1521
     33 C27         3.3134   -2.2376   -1.9026 C.3       1 <0>        -0.1383
     34 C28         2.9434   -5.1115   -1.6672 C.1       1 <0>         0.2660
     35 N3          3.7165   -5.8190   -2.1058 N.1       1 <0>        -0.4091
     36 H1          2.3006  -15.5829   -3.7271 H         1 <0>         0.0610
     37 H2          1.7874  -13.8758   -3.9483 H         1 <0>         0.0568
     38 H3          0.6684  -15.0590   -3.1904 H         1 <0>         0.0572
     39 H4          2.2195  -15.2871   -1.2565 H         1 <0>         0.0755
     40 H5          3.3385  -14.1040   -2.0144 H         1 <0>         0.0751
     41 H6          0.0864  -14.5693   -0.3585 H         1 <0>         0.1277
     42 H7         -1.2173  -12.7258    0.6179 H         1 <0>         0.1371
     43 H8          1.4465   -9.9025   -1.1984 H         1 <0>         0.1231
     44 H9          2.7434  -11.7591   -2.1592 H         1 <0>         0.1280
     45 H10         0.5277   -8.5637   -0.4965 H         1 <0>         0.1419
     46 H11        -2.7745   -6.0094    1.9333 H         1 <0>         0.1628
     47 H12        -4.6996   -6.6463    3.2905 H         1 <0>         0.1343
     48 H13        -5.2713   -9.0129    3.6257 H         1 <0>         0.1356
     49 H14        -3.9420  -10.7774    2.6033 H         1 <0>         0.1414
     50 H15         1.1095   -6.8383   -0.5992 H         1 <0>         0.4509
     51 H16         1.0258    1.7412   -0.0048 H         1 <0>         0.0878
     52 H17        -0.7711    3.0259   -1.2555 H         1 <0>         0.0774
     53 H18        -1.7852    1.5432   -1.2609 H         1 <0>         0.0688
     54 H19        -0.2277    1.5693   -2.1555 H         1 <0>         0.0630
     55 H20        -0.7769    3.0207    1.2429 H         1 <0>         0.0815
     56 H21        -0.2375    1.5604    2.1393 H         1 <0>         0.0663
     57 H22        -1.7909    1.5380    1.2375 H         1 <0>         0.0705
     58 H23         3.2372   -1.1408   -1.8670 H         1 <0>         0.1117
     59 H24         3.3390   -2.5695   -2.9510 H         1 <0>         0.0791
     60 H25         4.2346   -2.5579   -1.3939 H         1 <0>         0.0793
@<TRIPOS>BOND
     1    1    2 1
     2    1   36 1
     3    1   37 1
     4    1   38 1
     5    2    3 1
     6    2   39 1
     7    2   40 1
     8    3    8 ar
     9    3    4 ar
    10    4    5 ar
    11    4   41 1
    12    5    6 ar
    13    5   42 1
    14    6    7 ar
    15    6    9 1
    16    7    8 ar
    17    7   43 1
    18    8   44 1
    19    9   18 ar
    20    9   10 ar
    21   10   11 ar
    22   10   45 1
    23   11   12 ar
    24   11   19 1
    25   12   17 ar
    26   12   13 ar
    27   13   14 ar
    28   13   46 1
    29   14   15 ar
    30   14   47 1
    31   15   16 ar
    32   15   48 1
    33   16   17 ar
    34   16   49 1
    35   17   18 ar
    36   19   20 2
    37   19   21 am
    38   21   22 1
    39   21   50 1
    40   22   26 1
    41   22   23 2
    42   23   24 1
    43   23   34 1
    44   24   25 2
    45   24   33 1
    46   25   26 1
    47   25   27 1
    48   27   28 2
    49   27   29 1
    50   29   30 1
    51   30   31 1
    52   30   32 1
    53   30   51 1
    54   31   52 1
    55   31   53 1
    56   31   54 1
    57   32   55 1
    58   32   56 1
    59   32   57 1
    60   33   58 1
    61   33   59 1
    62   33   60 1
    63   34   35 3
@<TRIPOS>MOLECULE
ZINC35002039
   49    51     0     0     0
SMALL
USER_CHARGES

@<TRIPOS>ATOM
      1 C1          1.7828    1.0442    0.7956 C.ar      1 <0>        -0.0598
      2 C2          1.6121    1.7540   -0.3785 C.ar      1 <0>        -0.1145
      3 C3          1.2339    1.0972   -1.5343 C.ar      1 <0>        -0.0499
      4 C4          1.0266   -0.2696   -1.5164 C.ar      1 <0>        -0.0439
      5 C5          1.1982   -0.9793   -0.3429 C.ar      1 <0>        -0.0505
      6 C6          1.5752   -0.3221    0.8136 C.ar      1 <0>        -0.1100
      7 C7          0.9713   -2.4690   -0.3232 C.3       1 <0>         0.1413
      8 N1          1.1231   -2.9680    1.0459 N.am      1 <0>        -0.6209
      9 C8         -0.0539   -3.1194    1.9050 C.3       1 <0>         0.1349
     10 C9         -0.6355   -4.5237    1.7305 C.3       1 <0>        -0.1030
     11 C10        -1.8462   -4.6794    2.6143 C.ar      1 <0>        -0.0684
     12 C11        -1.7169   -5.2413    3.8707 C.ar      1 <0>        -0.0857
     13 C12        -2.8267   -5.3844    4.6817 C.ar      1 <0>        -0.1016
     14 C13        -4.0680   -4.9649    4.2367 C.ar      1 <0>        -0.0261
     15 C14        -4.1979   -4.4022    2.9799 C.ar      1 <0>        -0.1004
     16 C15        -3.0857   -4.2548    2.1703 C.ar      1 <0>        -0.0235
     17 Cl1        -3.2466   -3.5431    0.5951 Cl        1 <0>        -0.0531
     18 Cl2        -5.4621   -5.1453    5.2554 Cl        1 <0>        -0.0546
     19 C16         2.3454   -3.2878    1.5149 C.2       1 <0>         0.7107
     20 O1          2.4843   -3.6125    2.6784 O.2       1 <0>        -0.5563
     21 N2          3.4138   -3.2477    0.6943 N.am      1 <0>        -0.6771
     22 C17         4.6668   -3.6726    1.1545 C.ar      1 <0>         0.1367
     23 C18         4.7583   -4.4673    2.2888 C.ar      1 <0>        -0.1172
     24 C19         5.9953   -4.8849    2.7405 C.ar      1 <0>        -0.1044
     25 C20         7.1426   -4.5125    2.0644 C.ar      1 <0>        -0.1132
     26 C21         7.0567   -3.7209    0.9340 C.ar      1 <0>        -0.1291
     27 C22         5.8212   -3.3040    0.4729 C.ar      1 <0>         0.0583
     28 F1          5.7366   -2.5352   -0.6348 F         1 <0>        -0.1409
     29 N3          0.6206   -0.9729   -2.7540 N.pl3     1 <0>         0.0350
     30 O2          0.3727   -0.3412   -3.7546 O.2       1 <0>        -0.1507
     31 O3          0.5367   -2.1789   -2.7642 O.3       1 <0>        -0.1641
     32 H1          2.0828    1.5568    1.6977 H         1 <0>         0.1452
     33 H2          1.7740    2.8217   -0.3925 H         1 <0>         0.1504
     34 H3          1.0998    1.6518   -2.4513 H         1 <0>         0.1570
     35 H4          1.7089   -0.8766    1.7307 H         1 <0>         0.1451
     36 H5         -0.0350   -2.6880   -0.6803 H         1 <0>         0.1218
     37 H6          1.7006   -2.9562   -0.9704 H         1 <0>         0.1075
     38 H7          0.2347   -2.9724    2.9458 H         1 <0>         0.0970
     39 H8         -0.8038   -2.3785    1.6278 H         1 <0>         0.0837
     40 H9         -0.9241   -4.6707    0.6897 H         1 <0>         0.0868
     41 H10         0.1144   -5.2646    2.0077 H         1 <0>         0.0881
     42 H11        -0.7483   -5.5689    4.2185 H         1 <0>         0.1453
     43 H12        -2.7252   -5.8241    5.6629 H         1 <0>         0.1423
     44 H13        -5.1664   -4.0746    2.6321 H         1 <0>         0.1452
     45 H14         3.3151   -2.9246   -0.2150 H         1 <0>         0.4094
     46 H15         3.8632   -4.7588    2.8181 H         1 <0>         0.1705
     47 H16         6.0664   -5.5030    3.6233 H         1 <0>         0.1339
     48 H17         8.1081   -4.8403    2.4204 H         1 <0>         0.1340
     49 H18         7.9546   -3.4317    0.4082 H         1 <0>         0.1393
@<TRIPOS>BOND
     1    1    6 ar
     2    1    2 ar
     3    1   32 1
     4    2    3 ar
     5    2   33 1
     6    3    4 ar
     7    3   34 1
     8    4    5 ar
     9    4   29 1
    10    5    6 ar
    11    5    7 1
    12    6   35 1
    13    7    8 1
    14    7   36 1
    15    7   37 1
    16    8    9 1
    17    8   19 am
    18    9   10 1
    19    9   38 1
    20    9   39 1
    21   10   11 1
    22   10   40 1
    23   10   41 1
    24   11   16 ar
    25   11   12 ar
    26   12   13 ar
    27   12   42 1
    28   13   14 ar
    29   13   43 1
    30   14   15 ar
    31   14   18 1
    32   15   16 ar
    33   15   44 1
    34   16   17 1
    35   19   20 2
    36   19   21 am
    37   21   22 1
    38   21   45 1
    39   22   27 ar
    40   22   23 ar
    41   23   24 ar
    42   23   46 1
    43   24   25 ar
    44   24   47 1
    45   25   26 ar
    46   25   48 1
    47   26   27 ar
    48   26   49 1
    49   27   28 1
    50   29   30 2
    51   29   31 1
@<TRIPOS>MOLECULE
ZINC40033153
   72    76     0     0     0
SMALL
USER_CHARGES

@<TRIPOS>ATOM
      1 C1         -0.1201    1.2913   -0.1618 C.3       1 <0>        -0.1538
      2 C2         -0.3716   -0.1896    0.1287 C.3       1 <0>         0.0511
      3 O1         -0.8047   -0.8426   -1.0663 O.3       1 <0>        -0.3095
      4 C3         -1.0732   -2.1725   -0.9803 C.ar      1 <0>         0.1543
      5 C4         -0.9278   -2.8324    0.2315 C.ar      1 <0>        -0.1995
      6 C5         -1.2008   -4.1829    0.3195 C.ar      1 <0>        -0.0484
      7 C6         -1.6209   -4.8808   -0.8050 C.ar      1 <0>         0.0411
      8 C7         -1.7662   -4.2198   -2.0176 C.ar      1 <0>        -0.0591
      9 C8         -1.4980   -2.8682   -2.1031 C.ar      1 <0>        -0.1413
     10 N1         -1.8978   -6.2520   -0.7164 N.am      1 <0>        -0.4924
     11 C9         -3.1218   -6.6675   -0.3250 C.2       1 <0>         0.5495
     12 O2         -3.9925   -5.8606   -0.0410 O.2       1 <0>        -0.5140
     13 C10        -3.3712   -8.0437   -0.2524 C.2       1 <0>        -0.2852
     14 C11        -2.3537   -8.9264   -0.5854 C.2       1 <0>         0.2614
     15 N2         -1.1587   -8.4577   -0.9596 N.2       1 <0>        -0.5384
     16 C12        -0.9320   -7.1619   -1.0310 C.2       1 <0>         0.6537
     17 N3          0.3041   -6.7183   -1.4252 N.pl3     1 <0>        -0.5499
     18 N4          1.3319   -7.6375   -1.6735 N.2       1 <0>        -0.2028
     19 C13         2.5019   -7.2176   -2.0466 C.2       1 <0>         0.1157
     20 C14         3.5836   -8.1852   -2.3080 C.ar      1 <0>        -0.0634
     21 C15         3.3510   -9.5547   -2.1605 C.ar      1 <0>        -0.0705
     22 C16         4.3675  -10.4540   -2.4066 C.ar      1 <0>        -0.1236
     23 C17         5.6155  -10.0023   -2.7983 C.ar      1 <0>        -0.0549
     24 C18         5.8532   -8.6472   -2.9459 C.ar      1 <0>        -0.1206
     25 C19         4.8442   -7.7369   -2.7097 C.ar      1 <0>        -0.0843
     26 C20         6.7211  -10.9911   -3.0649 C.3       1 <0>        -0.0618
     27 C21         7.1910  -10.8522   -4.5143 C.3       1 <0>        -0.1455
     28 C22         7.8922  -10.7135   -2.1202 C.3       1 <0>        -0.1455
     29 C23        -2.6202  -10.3815   -0.5237 C.ar      1 <0>        -0.0582
     30 C24        -1.5743  -11.2985   -0.4739 C.ar      1 <0>        -0.0648
     31 C25        -1.8519  -12.6496   -0.4114 C.ar      1 <0>        -0.1349
     32 C26        -3.1641  -13.0882   -0.3979 C.ar      1 <0>        -0.0965
     33 C27        -4.2066  -12.1801   -0.4491 C.ar      1 <0>        -0.1267
     34 C28        -3.9427  -10.8274   -0.5150 C.ar      1 <0>        -0.0440
     35 C29        -5.0707   -9.8339   -0.5840 C.3       1 <0>        -0.0754
     36 C30        -4.7129   -8.5623    0.1813 C.3       1 <0>         0.0167
     37 C31        -4.6748   -8.8692    1.6797 C.3       1 <0>        -0.1363
     38 C32        -5.7766   -7.4958   -0.0873 C.3       1 <0>        -0.1339
     39 H1          0.2103    1.7894    0.7497 H         1 <0>         0.0815
     40 H2          0.6504    1.3857   -0.9271 H         1 <0>         0.0679
     41 H3         -1.0416    1.7539   -0.5150 H         1 <0>         0.0685
     42 H4          0.5500   -0.6523    0.4820 H         1 <0>         0.0652
     43 H5         -1.1420   -0.2840    0.8940 H         1 <0>         0.0662
     44 H6         -0.6007   -2.2895    1.1060 H         1 <0>         0.1398
     45 H7         -1.0873   -4.6965    1.2628 H         1 <0>         0.1315
     46 H8         -2.0929   -4.7621   -2.8926 H         1 <0>         0.1359
     47 H9         -1.6149   -2.3531   -3.0451 H         1 <0>         0.1439
     48 H10         0.4670   -5.7681   -1.5322 H         1 <0>         0.3992
     49 H11         2.6832   -6.1597   -2.1657 H         1 <0>         0.1212
     50 H12         2.3777   -9.9086   -1.8542 H         1 <0>         0.1372
     51 H13         4.1891  -11.5130   -2.2931 H         1 <0>         0.1263
     52 H14         6.8299   -8.3018   -3.2513 H         1 <0>         0.1266
     53 H15         5.0297   -6.6798   -2.8303 H         1 <0>         0.1276
     54 H16         6.3517  -12.0029   -2.8981 H         1 <0>         0.0798
     55 H17         7.5604   -9.8403   -4.6811 H         1 <0>         0.0574
     56 H18         7.9907  -11.5673   -4.7071 H         1 <0>         0.0597
     57 H19         6.3567  -11.0499   -5.1872 H         1 <0>         0.0569
     58 H20         8.2616   -9.7017   -2.2870 H         1 <0>         0.0574
     59 H21         7.5574  -10.8125   -1.0876 H         1 <0>         0.0568
     60 H22         8.6919  -11.4286   -2.3130 H         1 <0>         0.0597
     61 H23        -0.5505  -10.9549   -0.4845 H         1 <0>         0.1354
     62 H24        -1.0437  -13.3650   -0.3732 H         1 <0>         0.1263
     63 H25        -3.3759  -14.1460   -0.3468 H         1 <0>         0.1249
     64 H26        -5.2281  -12.5305   -0.4382 H         1 <0>         0.1275
     65 H27        -5.2657   -9.5832   -1.6267 H         1 <0>         0.0808
     66 H28        -5.9664  -10.2760   -0.1476 H         1 <0>         0.0852
     67 H29        -4.4392   -7.9590    2.2311 H         1 <0>         0.0542
     68 H30        -5.6468   -9.2458    1.9983 H         1 <0>         0.0597
     69 H31        -3.9111   -9.6215    1.8771 H         1 <0>         0.0532
     70 H32        -5.6878   -7.1449   -1.1154 H         1 <0>         0.0493
     71 H33        -6.7672   -7.9240    0.0661 H         1 <0>         0.0461
     72 H34        -5.6327   -6.6589    0.5960 H         1 <0>         0.0827
@<TRIPOS>BOND
     1    1    2 1
     2    1   39 1
     3    1   40 1
     4    1   41 1
     5    2    3 1
     6    2   42 1
     7    2   43 1
     8    3    4 1
     9    4    9 ar
    10    4    5 ar
    11    5    6 ar
    12    5   44 1
    13    6    7 ar
    14    6   45 1
    15    7    8 ar
    16    7   10 1
    17    8    9 ar
    18    8   46 1
    19    9   47 1
    20   10   16 1
    21   10   11 am
    22   11   12 2
    23   11   13 1
    24   13   36 1
    25   13   14 2
    26   14   15 1
    27   14   29 1
    28   15   16 2
    29   16   17 1
    30   17   18 1
    31   17   48 1
    32   18   19 2
    33   19   20 1
    34   19   49 1
    35   20   25 ar
    36   20   21 ar
    37   21   22 ar
    38   21   50 1
    39   22   23 ar
    40   22   51 1
    41   23   24 ar
    42   23   26 1
    43   24   25 ar
    44   24   52 1
    45   25   53 1
    46   26   27 1
    47   26   28 1
    48   26   54 1
    49   27   55 1
    50   27   56 1
    51   27   57 1
    52   28   58 1
    53   28   59 1
    54   28   60 1
    55   29   34 ar
    56   29   30 ar
    57   30   31 ar
    58   30   61 1
    59   31   32 ar
    60   31   62 1
    61   32   33 ar
    62   32   63 1
    63   33   34 ar
    64   33   64 1
    65   34   35 1
    66   35   36 1
    67   35   65 1
    68   35   66 1
    69   36   37 1
    70   36   38 1
    71   37   67 1
    72   37   68 1
    73   37   69 1
    74   38   70 1
    75   38   71 1
    76   38   72 1
@<TRIPOS>MOLECULE
ZINC03672364
   53    55     0     0     0
SMALL
USER_CHARGES
ethyl 4-[1-(4-bromophenyl)-3-(4-nitrophenyl)-3-oxo-propyl]aminobenzoate
@<TRIPOS>ATOM
      1 C1          1.5470   -4.3240    7.2276 C.3       1 <0>        -0.1531
      2 C2          0.6554   -3.0887    7.3690 C.3       1 <0>         0.0632
      3 O1          0.5681   -2.4059    6.0905 O.3       1 <0>        -0.3573
      4 C3         -0.1853   -1.2896    6.0433 C.2       1 <0>         0.5136
      5 O2         -0.7537   -0.8975    7.0432 O.2       1 <0>        -0.5167
      6 C4         -0.3198   -0.5443    4.7790 C.ar      1 <0>        -0.1912
      7 C5         -1.1013    0.6145    4.7282 C.ar      1 <0>        -0.0025
      8 C6         -1.2239    1.3057    3.5505 C.ar      1 <0>        -0.2068
      9 C7         -0.5715    0.8553    2.4059 C.ar      1 <0>         0.2640
     10 C8          0.2030   -0.3009    2.4516 C.ar      1 <0>        -0.2067
     11 C9          0.3342   -0.9939    3.6274 C.ar      1 <0>        -0.0099
     12 N1         -0.6984    1.5583    1.2133 N.pl3     1 <0>        -0.7241
     13 C10        -0.0127    1.0858    0.0080 C.3       1 <0>         0.1986
     14 H1          0.0021   -0.0041    0.0020 H         1 <0>         0.1045
     15 C11        -0.7527    1.5927   -1.2315 C.3       1 <0>        -0.1639
     16 C12        -2.1255    0.9734   -1.2852 C.2       1 <0>         0.3891
     17 O3         -2.4773    0.2027   -0.4177 O.2       1 <0>        -0.4114
     18 C13        -3.0392    1.3040   -2.3906 C.ar      1 <0>        -0.1201
     19 C14        -2.6392    2.1969   -3.3899 C.ar      1 <0>        -0.0747
     20 C15        -3.4993    2.4978   -4.4248 C.ar      1 <0>        -0.0650
     21 C16        -4.7594    1.9273   -4.4703 C.ar      1 <0>        -0.0162
     22 C17        -5.1644    1.0465   -3.4826 C.ar      1 <0>        -0.0635
     23 C18        -4.3140    0.7313   -2.4439 C.ar      1 <0>        -0.0604
     24 N2         -5.6787    2.2606   -5.5814 N.pl3     1 <0>         0.0200
     25 O4         -6.7882    1.7601   -5.6248 O.2       1 <0>        -0.1481
     26 O5         -5.3256    3.0353   -6.4524 O.3       1 <0>        -0.1479
     27 C19         1.4011    1.6074   -0.0027 C.ar      1 <0>        -0.0943
     28 C20         1.6632    2.9018    0.4059 C.ar      1 <0>        -0.0917
     29 C21         2.9603    3.3791    0.4008 C.ar      1 <0>        -0.0890
     30 C22         3.9950    2.5648   -0.0232 C.ar      1 <0>        -0.0852
     31 C23         3.7316    1.2714   -0.4369 C.ar      1 <0>        -0.0872
     32 C24         2.4348    0.7933   -0.4265 C.ar      1 <0>        -0.1018
     33 Br1         5.7691    3.2193   -0.0366 Br        1 <0>        -0.0455
     34 H2          1.6125   -4.8366    8.1874 H         1 <0>         0.0805
     35 H3          1.1197   -4.9973    6.4846 H         1 <0>         0.0668
     36 H4          2.5439   -4.0182    6.9103 H         1 <0>         0.0668
     37 H5          1.0827   -2.4154    8.1121 H         1 <0>         0.0700
     38 H6         -0.3415   -3.3945    7.6864 H         1 <0>         0.0701
     39 H7         -1.6073    0.9646    5.6158 H         1 <0>         0.1358
     40 H8         -1.8270    2.2008    3.5107 H         1 <0>         0.1287
     41 H9          0.7044   -0.6498    1.5610 H         1 <0>         0.1270
     42 H10         0.9387   -1.8881    3.6633 H         1 <0>         0.1355
     43 H11        -1.2410    2.3616    1.1793 H         1 <0>         0.4015
     44 H12        -0.8376    2.5880   -1.1852 H         1 <0>         0.1015
     45 H13        -0.1944    1.3168   -2.1261 H         1 <0>         0.1238
     46 H14        -1.6579    2.6463   -3.3533 H         1 <0>         0.1570
     47 H15        -3.1904    3.1840   -5.1995 H         1 <0>         0.1625
     48 H16        -6.1492    0.6051   -3.5252 H         1 <0>         0.1623
     49 H17        -4.6314    0.0438   -1.6739 H         1 <0>         0.1593
     50 H18         0.8547    3.5389    0.7330 H         1 <0>         0.1287
     51 H19         3.1655    4.3889    0.7242 H         1 <0>         0.1339
     52 H20         4.5391    0.6354   -0.7683 H         1 <0>         0.1357
     53 H21         2.2291   -0.2165   -0.7498 H         1 <0>         0.1338
@<TRIPOS>BOND
     1    1    2 1
     2    1   34 1
     3    1   35 1
     4    1   36 1
     5    2    3 1
     6    2   37 1
     7    2   38 1
     8    3    4 1
     9    4    5 2
    10    4    6 1
    11    6   11 ar
    12    6    7 ar
    13    7    8 ar
    14    7   39 1
    15    8    9 ar
    16    8   40 1
    17    9   10 ar
    18    9   12 1
    19   10   11 ar
    20   10   41 1
    21   11   42 1
    22   12   13 1
    23   12   43 1
    24   13   14 1
    25   13   15 1
    26   13   27 1
    27   15   16 1
    28   15   44 1
    29   15   45 1
    30   16   17 2
    31   16   18 1
    32   18   23 ar
    33   18   19 ar
    34   19   20 ar
    35   19   46 1
    36   20   21 ar
    37   20   47 1
    38   21   22 ar
    39   21   24 1
    40   22   23 ar
    41   22   48 1
    42   23   49 1
    43   24   25 2
    44   24   26 1
    45   27   32 ar
    46   27   28 ar
    47   28   29 ar
    48   28   50 1
    49   29   30 ar
    50   29   51 1
    51   30   31 ar
    52   30   33 1
    53   31   32 ar
    54   31   52 1
    55   32   53 1
@<TRIPOS>MOLECULE
ZINC16437015
   74    76     0     0     0
SMALL
USER_CHARGES
N-[2-[[5-tert-butyl-2-(m-tolyl)pyrazol-3-yl]amino]-2-oxo-ethyl]-N-isopentyl-3-methoxy-benzamide
@<TRIPOS>ATOM
      1 C1          3.5023   -4.2547    8.6094 C.3       1 <0>        -0.1189
      2 C2          3.0578   -4.1757    7.1716 C.ar      1 <0>        -0.0577
      3 C3          3.8833   -4.6457    6.1665 C.ar      1 <0>        -0.1252
      4 C4          3.4788   -4.5754    4.8463 C.ar      1 <0>        -0.0859
      5 C5          2.2458   -4.0399    4.5278 C.ar      1 <0>        -0.1595
      6 C6          1.4171   -3.5626    5.5341 C.ar      1 <0>         0.1638
      7 C7          1.8263   -3.6346    6.8592 C.ar      1 <0>        -0.1119
      8 N1          0.1677   -3.0144    5.2138 N.pl3     1 <0>        -0.3430
      9 C8         -0.1259   -2.2798    4.1063 C.2       1 <0>         0.3053
     10 C9         -1.4410   -1.9368    4.1810 C.2       1 <0>        -0.2570
     11 C10        -1.9610   -2.4840    5.3574 C.2       1 <0>         0.1107
     12 N2         -1.0021   -3.1241    5.9765 N.2       1 <0>        -0.2722
     13 C11        -3.3843   -2.3534    5.8353 C.3       1 <0>         0.0123
     14 C12        -4.2859   -3.2732    5.0095 C.3       1 <0>        -0.1378
     15 C13        -3.4653   -2.7503    7.3107 C.3       1 <0>        -0.1375
     16 C14        -3.8466   -0.9042    5.6709 C.3       1 <0>        -0.1386
     17 N3          0.7597   -1.9364    3.0854 N.am      1 <0>        -0.6506
     18 C15         0.3313   -1.1999    2.0411 C.2       1 <0>         0.4929
     19 O1         -0.8246   -0.8358    1.9893 O.2       1 <0>        -0.4781
     20 C16         1.2883   -0.8289    0.9377 C.3       1 <0>         0.0603
     21 N4          0.5850   -0.0335   -0.0718 N.am      1 <0>        -0.5862
     22 C17         0.3748    1.4006    0.1416 C.3       1 <0>         0.1141
     23 C18         1.6079    2.1728   -0.3317 C.3       1 <0>        -0.1310
     24 C19         1.4436    3.6551    0.0101 C.3       1 <0>        -0.0933
     25 C20         2.7328    4.4037   -0.3341 C.3       1 <0>        -0.1472
     26 C21         0.2833    4.2392   -0.7982 C.3       1 <0>        -0.1516
     27 C22         0.1315   -0.6210   -1.1967 C.2       1 <0>         0.5680
     28 O2         -0.5501    0.0109   -1.9801 O.2       1 <0>        -0.5119
     29 C23         0.4629   -2.0343   -1.4779 C.ar      1 <0>        -0.0888
     30 C24         0.6752   -2.9267   -0.4256 C.ar      1 <0>        -0.1579
     31 C25         0.9796   -4.2459   -0.6917 C.ar      1 <0>        -0.0793
     32 C26         1.0857   -4.6855   -1.9985 C.ar      1 <0>        -0.1845
     33 C27         0.8815   -3.8042   -3.0513 C.ar      1 <0>         0.1304
     34 C28         0.5703   -2.4792   -2.7956 C.ar      1 <0>        -0.0930
     35 O3          0.9875   -4.2418   -4.3337 O.3       1 <0>        -0.3119
     36 C29         1.3112   -5.6206   -4.5240 C.3       1 <0>         0.0248
     37 H1          3.1801   -5.2038    9.0377 H         1 <0>         0.0770
     38 H2          4.5890   -4.1844    8.6581 H         1 <0>         0.0723
     39 H3          3.0595   -3.4330    9.1723 H         1 <0>         0.0702
     40 H4          4.8459   -5.0688    6.4134 H         1 <0>         0.1312
     41 H5          4.1255   -4.9435    4.0636 H         1 <0>         0.1355
     42 H6          1.9285   -3.9893    3.4967 H         1 <0>         0.1241
     43 H7          1.1822   -3.2674    7.6445 H         1 <0>         0.1350
     44 H8         -1.9866   -1.3484    3.4581 H         1 <0>         0.1773
     45 H9         -3.9566   -4.3056    5.1266 H         1 <0>         0.0564
     46 H10        -5.3154   -3.1787    5.3551 H         1 <0>         0.0660
     47 H11        -4.2282   -2.9904    3.9584 H         1 <0>         0.0609
     48 H12        -2.8229   -2.0951    7.8990 H         1 <0>         0.0566
     49 H13        -4.4947   -2.6559    7.6563 H         1 <0>         0.0607
     50 H14        -3.1359   -3.7828    7.4278 H         1 <0>         0.0611
     51 H15        -3.7888   -0.6214    4.6198 H         1 <0>         0.0628
     52 H16        -4.8760   -0.8098    6.0166 H         1 <0>         0.0653
     53 H17        -3.2042   -0.2490    6.2592 H         1 <0>         0.0568
     54 H18         1.6840   -2.2276    3.1268 H         1 <0>         0.4130
     55 H19         1.6809   -1.7354    0.4771 H         1 <0>         0.1480
     56 H20         2.1111   -0.2457    1.3512 H         1 <0>         0.1164
     57 H21        -0.4979    1.7279   -0.4236 H         1 <0>         0.0972
     58 H22         0.2125    1.5901    1.2026 H         1 <0>         0.0782
     59 H23         2.4950    1.7813    0.1662 H         1 <0>         0.0635
     60 H24         1.7163    2.0585   -1.4103 H         1 <0>         0.0696
     61 H25         1.2348    3.7615    1.0746 H         1 <0>         0.0706
     62 H26         2.9416    4.2973   -1.3986 H         1 <0>         0.0552
     63 H27         2.6158    5.4597   -0.0907 H         1 <0>         0.0562
     64 H28         3.5594    3.9875    0.2417 H         1 <0>         0.0532
     65 H29         0.2258    5.3141   -0.6265 H         1 <0>         0.0551
     66 H30         0.4472    4.0490   -1.8589 H         1 <0>         0.0568
     67 H31        -0.6498    3.7709   -0.4850 H         1 <0>         0.0569
     68 H32         0.5975   -2.5856    0.5961 H         1 <0>         0.1347
     69 H33         1.1399   -4.9362    0.1233 H         1 <0>         0.1328
     70 H34         1.3286   -5.7182   -2.2007 H         1 <0>         0.1359
     71 H35         0.4108   -1.7926   -3.6139 H         1 <0>         0.1450
     72 H36         1.3648   -5.8372   -5.5909 H         1 <0>         0.1046
     73 H37         2.2743   -5.8350   -4.0608 H         1 <0>         0.0580
     74 H38         0.5413   -6.2412   -4.0655 H         1 <0>         0.0581
@<TRIPOS>BOND
     1    1    2 1
     2    1   37 1
     3    1   38 1
     4    1   39 1
     5    2    7 ar
     6    2    3 ar
     7    3    4 ar
     8    3   40 1
     9    4    5 ar
    10    4   41 1
    11    5    6 ar
    12    5   42 1
    13    6    7 ar
    14    6    8 1
    15    7   43 1
    16    8   12 1
    17    8    9 1
    18    9   10 2
    19    9   17 1
    20   10   11 1
    21   10   44 1
    22   11   12 2
    23   11   13 1
    24   13   14 1
    25   13   15 1
    26   13   16 1
    27   14   45 1
    28   14   46 1
    29   14   47 1
    30   15   48 1
    31   15   49 1
    32   15   50 1
    33   16   51 1
    34   16   52 1
    35   16   53 1
    36   17   18 am
    37   17   54 1
    38   18   19 2
    39   18   20 1
    40   20   21 1
    41   20   55 1
    42   20   56 1
    43   21   22 1
    44   21   27 am
    45   22   23 1
    46   22   57 1
    47   22   58 1
    48   23   24 1
    49   23   59 1
    50   23   60 1
    51   24   25 1
    52   24   26 1
    53   24   61 1
    54   25   62 1
    55   25   63 1
    56   25   64 1
    57   26   65 1
    58   26   66 1
    59   26   67 1
    60   27   28 2
    61   27   29 1
    62   29   34 ar
    63   29   30 ar
    64   30   31 ar
    65   30   68 1
    66   31   32 ar
    67   31   69 1
    68   32   33 ar
    69   32   70 1
    70   33   34 ar
    71   33   35 1
    72   34   71 1
    73   35   36 1
    74   36   72 1
    75   36   73 1
    76   36   74 1
@<TRIPOS>MOLECULE
ZINC36145436
   63    66     0     0     0
SMALL
USER_CHARGES

@<TRIPOS>ATOM
      1 C1         -1.3884   -0.3760    0.3693 C.3       1 <0>        -0.1394
      2 C2         -0.8177   -1.7952    0.3358 C.3       1 <0>        -0.1431
      3 C3         -0.0458   -1.9961   -0.9429 C.2       1 <0>         0.5105
      4 O1          0.0394   -1.0931   -1.7482 O.2       1 <0>        -0.5168
      5 N1          0.5498   -3.1793   -1.1916 N.am      1 <0>        -0.6773
      6 C4          1.1766   -3.4020   -2.4231 C.ar      1 <0>         0.1459
      7 C5          1.8409   -2.3618   -3.0613 C.ar      1 <0>        -0.1184
      8 C6          2.4593   -2.5786   -4.2746 C.ar      1 <0>        -0.0834
      9 C7          2.4175   -3.8430   -4.8610 C.ar      1 <0>        -0.0247
     10 C8          1.7502   -4.8851   -4.2184 C.ar      1 <0>        -0.0748
     11 C9          1.1383   -4.6643   -3.0025 C.ar      1 <0>        -0.1420
     12 C10         3.0811   -4.0787   -6.1656 C.2       1 <0>        -0.1564
     13 C11         2.4370   -4.3497   -7.3994 C.2       1 <0>         0.1661
     14 N2          3.3636   -4.4984   -8.3204 N.2       1 <0>        -0.2527
     15 N3          4.6205   -4.3321   -7.7276 N.pl3     1 <0>        -0.3220
     16 C12         4.4392   -4.0693   -6.4057 C.2       1 <0>         0.2626
     17 O2          5.4150   -3.8424   -5.4906 O.3       1 <0>        -0.2681
     18 C13         6.0098   -4.9058   -4.9266 C.2       1 <0>         0.4571
     19 O3          5.7367   -6.0210   -5.3030 O.2       1 <0>        -0.4806
     20 C14         7.0180   -4.7084   -3.8240 C.3       1 <0>        -0.1411
     21 C15         5.8545   -4.4165   -8.3849 C.ar      1 <0>         0.1759
     22 C16         6.8587   -3.5001   -8.0996 C.ar      1 <0>        -0.1361
     23 C17         8.0748   -3.5847   -8.7486 C.ar      1 <0>        -0.0689
     24 C18         8.2944   -4.5802   -9.6827 C.ar      1 <0>        -0.1501
     25 C19         7.2958   -5.4956   -9.9705 C.ar      1 <0>         0.1205
     26 C20         6.0780   -5.4193   -9.3182 C.ar      1 <0>        -0.1390
     27 F1          7.5129   -6.4671  -10.8839 F         1 <0>        -0.1293
     28 C21         0.9735   -4.4490   -7.6136 C.ar      1 <0>        -0.0871
     29 C22         0.1068   -3.6098   -6.9141 C.ar      1 <0>        -0.0301
     30 C23        -1.2538   -3.7040   -7.1149 C.ar      1 <0>        -0.1981
     31 C24        -1.7620   -4.6346   -8.0139 C.ar      1 <0>         0.2299
     32 C25        -0.9001   -5.4726   -8.7120 C.ar      1 <0>        -0.2016
     33 C26         0.4616   -5.3778   -8.5191 C.ar      1 <0>        -0.0341
     34 N4         -3.1402   -4.7281   -8.2155 N.pl3     1 <0>        -0.6351
     35 C27        -4.0496   -3.8459   -7.4801 C.3       1 <0>         0.0903
     36 C28        -3.6771   -5.7085   -9.1626 C.3       1 <0>         0.0904
     37 H1         -0.5725    0.3450    0.3203 H         1 <0>         0.0630
     38 H2         -2.0528   -0.2314   -0.4827 H         1 <0>         0.0629
     39 H3         -1.9467   -0.2307    1.2941 H         1 <0>         0.0641
     40 H4         -0.1533   -1.9398    1.1877 H         1 <0>         0.0965
     41 H5         -1.6336   -2.5162    0.3848 H         1 <0>         0.0968
     42 H6          0.5441   -3.8764   -0.5172 H         1 <0>         0.4113
     43 H7          1.8727   -1.3826   -2.6069 H         1 <0>         0.1407
     44 H8          2.9752   -1.7696   -4.7705 H         1 <0>         0.1267
     45 H9          1.7164   -5.8653   -4.6705 H         1 <0>         0.1258
     46 H10         0.6254   -5.4723   -2.5021 H         1 <0>         0.1268
     47 H11         6.5082   -4.7119   -2.8606 H         1 <0>         0.1133
     48 H12         7.7490   -5.5165   -3.8512 H         1 <0>         0.1108
     49 H13         7.5260   -3.7541   -3.9628 H         1 <0>         0.1004
     50 H14         6.6884   -2.7216   -7.3708 H         1 <0>         0.1405
     51 H15         8.8552   -2.8720   -8.5265 H         1 <0>         0.1475
     52 H16         9.2462   -4.6439  -10.1891 H         1 <0>         0.1457
     53 H17         5.3006   -6.1358   -9.5387 H         1 <0>         0.1470
     54 H18         0.5012   -2.8869   -6.2154 H         1 <0>         0.1262
     55 H19        -1.9254   -3.0545   -6.5732 H         1 <0>         0.1264
     56 H20        -1.2972   -6.1951   -9.4096 H         1 <0>         0.1266
     57 H21         1.1312   -6.0255   -9.0654 H         1 <0>         0.1254
     58 H22        -4.2119   -2.9326   -8.0525 H         1 <0>         0.0504
     59 H23        -5.0024   -4.3526   -7.3267 H         1 <0>         0.0675
     60 H24        -3.6113   -3.5961   -6.5139 H         1 <0>         0.0703
     61 H25        -3.8735   -6.6461   -8.6427 H         1 <0>         0.0501
     62 H26        -4.6048   -5.3293   -9.5911 H         1 <0>         0.0677
     63 H27        -2.9523   -5.8793   -9.9586 H         1 <0>         0.0705
@<TRIPOS>BOND
     1    1    2 1
     2    1   37 1
     3    1   38 1
     4    1   39 1
     5    2    3 1
     6    2   40 1
     7    2   41 1
     8    3    4 2
     9    3    5 am
    10    5    6 1
    11    5   42 1
    12    6   11 ar
    13    6    7 ar
    14    7    8 ar
    15    7   43 1
    16    8    9 ar
    17    8   44 1
    18    9   10 ar
    19    9   12 1
    20   10   11 ar
    21   10   45 1
    22   11   46 1
    23   12   16 2
    24   12   13 1
    25   13   14 2
    26   13   28 1
    27   14   15 1
    28   15   16 1
    29   15   21 1
    30   16   17 1
    31   17   18 1
    32   18   19 2
    33   18   20 1
    34   20   47 1
    35   20   48 1
    36   20   49 1
    37   21   26 ar
    38   21   22 ar
    39   22   23 ar
    40   22   50 1
    41   23   24 ar
    42   23   51 1
    43   24   25 ar
    44   24   52 1
    45   25   26 ar
    46   25   27 1
    47   26   53 1
    48   28   33 ar
    49   28   29 ar
    50   29   30 ar
    51   29   54 1
    52   30   31 ar
    53   30   55 1
    54   31   32 ar
    55   31   34 1
    56   32   33 ar
    57   32   56 1
    58   33   57 1
    59   34   35 1
    60   34   36 1
    61   35   58 1
    62   35   59 1
    63   35   60 1
    64   36   61 1
    65   36   62 1
    66   36   63 1
@<TRIPOS>MOLECULE
ZINC40599911
   52    55     0     0     0
SMALL
USER_CHARGES

@<TRIPOS>ATOM
      1 C1         -0.9013    1.5017    0.2270 C.ar      1 <0>        -0.1072
      2 C2          0.2837    1.9769   -0.3030 C.ar      1 <0>        -0.1022
      3 C3          1.3926    1.1539   -0.3641 C.ar      1 <0>        -0.0850
      4 C4          1.3167   -0.1441    0.1051 C.ar      1 <0>        -0.1286
      5 C5          0.1320   -0.6190    0.6359 C.ar      1 <0>        -0.1019
      6 C6         -0.9774    0.2035    0.6958 C.ar      1 <0>        -0.1197
      7 C7          2.5254   -1.0416    0.0376 C.3       1 <0>         0.1847
      8 N1          3.2202   -1.0230    1.3272 N.pl3     1 <0>        -0.6542
      9 C8          2.7718   -1.8977    2.4135 C.3       1 <0>         0.1785
     10 C9          3.5788   -3.1704    2.3993 C.ar      1 <0>        -0.1059
     11 C10         3.2054   -4.2164    1.5763 C.ar      1 <0>        -0.0998
     12 C11         3.9457   -5.3837    1.5632 C.ar      1 <0>        -0.1195
     13 C12         5.0595   -5.5050    2.3729 C.ar      1 <0>        -0.1139
     14 C13         5.4334   -4.4586    3.1953 C.ar      1 <0>        -0.1181
     15 C14         4.6956   -3.2896    3.2051 C.ar      1 <0>        -0.0979
     16 C15         4.3019   -0.1777    1.5196 C.ar      1 <0>         0.5245
     17 C16         4.1329    1.0542    2.1450 C.ar      1 <0>        -0.2030
     18 C17         5.2502    1.8658    2.3147 C.ar      1 <0>         0.4837
     19 N2          6.4328    1.4377    1.8757 N.ar      1 <0>        -0.5521
     20 C18         6.5517    0.2646    1.2885 C.ar      1 <0>         0.3798
     21 N3          5.5189   -0.5348    1.1137 N.ar      1 <0>        -0.5355
     22 N4          5.1343    3.1029    2.9316 N.pl3     1 <0>        -0.6360
     23 C19         6.2393    3.9574    2.9980 C.ar      1 <0>         0.1727
     24 C20         7.2737    3.8301    2.0799 C.ar      1 <0>        -0.1116
     25 C21         8.3638    4.6755    2.1471 C.ar      1 <0>        -0.0770
     26 C22         8.4271    5.6490    3.1273 C.ar      1 <0>        -0.1130
     27 C23         7.3990    5.7797    4.0442 C.ar      1 <0>        -0.0083
     28 C24         6.3021    4.9395    3.9790 C.ar      1 <0>        -0.0686
     29 Cl1         5.0090    5.1075    5.1250 Cl        1 <0>        -0.0388
     30 Cl2         7.4829    7.0032    5.2730 Cl        1 <0>        -0.0375
     31 N5          2.7992    1.4897    2.6168 N.pl3     1 <0>         0.0403
     32 O1          2.3784    1.1019    3.6818 O.2       1 <0>        -0.1452
     33 O2          2.1307    2.2332    1.9372 O.3       1 <0>        -0.1110
     34 H1         -1.7665    2.1461    0.2789 H         1 <0>         0.1207
     35 H2          0.3429    2.9911   -0.6696 H         1 <0>         0.1205
     36 H3          2.3182    1.5250   -0.7789 H         1 <0>         0.1098
     37 H4          0.0725   -1.6334    1.0019 H         1 <0>         0.1161
     38 H5         -1.9031   -0.1676    1.1101 H         1 <0>         0.1205
     39 H6          2.2097   -2.0597   -0.1904 H         1 <0>         0.0873
     40 H7          3.1984   -0.6866   -0.7429 H         1 <0>         0.0789
     41 H8          2.9096   -1.3908    3.3686 H         1 <0>         0.0800
     42 H9          1.7167   -2.1350    2.2770 H         1 <0>         0.0938
     43 H10         2.3352   -4.1217    0.9437 H         1 <0>         0.1187
     44 H11         3.6536   -6.2012    0.9207 H         1 <0>         0.1219
     45 H12         5.6374   -6.4173    2.3632 H         1 <0>         0.1213
     46 H13         6.3033   -4.5535    3.8282 H         1 <0>         0.1202
     47 H14         4.9898   -2.4708    3.8449 H         1 <0>         0.1101
     48 H15         7.5248   -0.0530    0.9439 H         1 <0>         0.2198
     49 H16         4.2868    3.3751    3.3170 H         1 <0>         0.4254
     50 H17         7.2259    3.0701    1.3140 H         1 <0>         0.1679
     51 H18         9.1681    4.5760    1.4333 H         1 <0>         0.1472
     52 H19         9.2810    6.3083    3.1774 H         1 <0>         0.1472
@<TRIPOS>BOND
     1    1    6 ar
     2    1    2 ar
     3    1   34 1
     4    2    3 ar
     5    2   35 1
     6    3    4 ar
     7    3   36 1
     8    4    5 ar
     9    4    7 1
    10    5    6 ar
    11    5   37 1
    12    6   38 1
    13    7    8 1
    14    7   39 1
    15    7   40 1
    16    8    9 1
    17    8   16 1
    18    9   10 1
    19    9   41 1
    20    9   42 1
    21   10   15 ar
    22   10   11 ar
    23   11   12 ar
    24   11   43 1
    25   12   13 ar
    26   12   44 1
    27   13   14 ar
    28   13   45 1
    29   14   15 ar
    30   14   46 1
    31   15   47 1
    32   16   21 ar
    33   16   17 ar
    34   17   18 ar
    35   17   31 1
    36   18   19 ar
    37   18   22 1
    38   19   20 ar
    39   20   21 ar
    40   20   48 1
    41   22   23 1
    42   22   49 1
    43   23   28 ar
    44   23   24 ar
    45   24   25 ar
    46   24   50 1
    47   25   26 ar
    48   25   51 1
    49   26   27 ar
    50   26   52 1
    51   27   28 ar
    52   27   30 1
    53   28   29 1
    54   31   32 2
    55   31   33 1
@<TRIPOS>MOLECULE
ZINC41002468
   58    61     0     0     0
SMALL
USER_CHARGES

@<TRIPOS>ATOM
      1 C1         -3.1263   -2.0977   -0.6096 C.3       1 <0>        -0.1520
      2 C2         -1.6734   -1.6420   -0.4606 C.3       1 <0>         0.0579
      3 O1         -0.8945   -2.1752   -1.5334 O.3       1 <0>        -0.3414
      4 C3          0.4190   -1.8652   -1.5500 C.2       1 <0>         0.5446
      5 O2          0.8891   -1.1607   -0.6760 O.2       1 <0>        -0.4929
      6 C4          1.2482   -2.3585   -2.5819 C.2       1 <0>        -0.2760
      7 C5          1.5976   -3.6542   -2.5574 C.2       1 <0>         0.2275
      8 N1          2.4083   -4.2111   -3.5145 N.pl3     1 <0>        -0.6085
      9 C6          3.0758   -3.3450   -4.3697 C.2       1 <0>         0.5043
     10 N2          4.0536   -3.5754   -5.2032 N.2       1 <0>        -0.5443
     11 C7          4.3916   -2.4354   -5.8234 C.2       1 <0>         0.2178
     12 N3          3.6209   -1.4638   -5.3840 N.2       1 <0>        -0.2617
     13 N4          2.7593   -2.0288   -4.4450 N.pl3     1 <0>        -0.3796
     14 C8          1.6935   -1.4078   -3.6608 C.3       1 <0>         0.2890
     15 H1          2.0674   -0.4908   -3.2055 H         1 <0>         0.1126
     16 C9          0.5268   -1.0839   -4.5580 C.ar      1 <0>        -0.1473
     17 C10        -0.1188   -2.0965   -5.2433 C.ar      1 <0>        -0.0430
     18 C11        -1.1883   -1.8022   -6.0667 C.ar      1 <0>        -0.1474
     19 C12        -1.6147   -0.4893   -6.2053 C.ar      1 <0>         0.1477
     20 C13        -0.9655    0.5248   -5.5163 C.ar      1 <0>        -0.2063
     21 C14         0.1002    0.2246   -4.6901 C.ar      1 <0>        -0.0482
     22 O3         -2.6663   -0.1972   -7.0151 O.3       1 <0>        -0.3012
     23 C15        -3.0503    1.1760   -7.1097 C.3       1 <0>         0.0988
     24 C16        -4.2246    1.3059   -8.0452 C.ar      1 <0>        -0.1286
     25 C17        -4.0131    1.5065   -9.3987 C.ar      1 <0>         0.1381
     26 C18        -5.0928    1.6257  -10.2571 C.ar      1 <0>        -0.1519
     27 C19        -6.3811    1.5445   -9.7627 C.ar      1 <0>        -0.0644
     28 C20        -6.5922    1.3442   -8.4116 C.ar      1 <0>        -0.1236
     29 C21        -5.5141    1.2192   -7.5531 C.ar      1 <0>         0.0123
     30 Cl1        -5.7804    0.9606   -5.8572 Cl        1 <0>        -0.0447
     31 F1         -2.7538    1.5863   -9.8815 F         1 <0>        -0.1246
     32 S1          5.6633   -2.2659   -7.0312 S.3       1 <0>         0.0179
     33 C22         6.3407   -3.9409   -7.1932 C.3       1 <0>        -0.1088
     34 C23         7.4698   -3.9367   -8.2257 C.3       1 <0>        -0.1397
     35 C24         1.0830   -4.5264   -1.4414 C.3       1 <0>        -0.1341
     36 H2         -3.5236   -1.7403   -1.5596 H         1 <0>         0.0669
     37 H3         -3.1700   -3.1865   -0.5841 H         1 <0>         0.0670
     38 H4         -3.7204   -1.6910    0.2088 H         1 <0>         0.0802
     39 H5         -1.6297   -0.5531   -0.4861 H         1 <0>         0.0687
     40 H6         -1.2761   -1.9994    0.4895 H         1 <0>         0.0689
     41 H7          2.5110   -5.1726   -3.5904 H         1 <0>         0.4421
     42 H8          0.2135   -3.1184   -5.1350 H         1 <0>         0.1188
     43 H9         -1.6918   -2.5934   -6.6023 H         1 <0>         0.1335
     44 H10        -1.2956    1.5476   -5.6227 H         1 <0>         0.1321
     45 H11         0.6031    1.0132   -4.1501 H         1 <0>         0.1293
     46 H12        -3.3298    1.5440   -6.1225 H         1 <0>         0.0847
     47 H13        -2.2144    1.7615   -7.4924 H         1 <0>         0.0806
     48 H14        -4.9285    1.7825  -11.3129 H         1 <0>         0.1477
     49 H15        -7.2231    1.6379  -10.4325 H         1 <0>         0.1483
     50 H16        -7.5992    1.2813   -8.0263 H         1 <0>         0.1459
     51 H17         6.7304   -4.2699   -6.2299 H         1 <0>         0.0928
     52 H18         5.5536   -4.6213   -7.5183 H         1 <0>         0.0928
     53 H19         7.0801   -3.6077   -9.1890 H         1 <0>         0.0673
     54 H20         8.2569   -3.2563   -7.9006 H         1 <0>         0.0674
     55 H21         7.8768   -4.9432   -8.3231 H         1 <0>         0.0798
     56 H22         0.0901   -4.8960   -1.6975 H         1 <0>         0.1051
     57 H23         1.7588   -5.3696   -1.2982 H         1 <0>         0.0906
     58 H24         1.0280   -3.9445   -0.5214 H         1 <0>         0.0911
@<TRIPOS>BOND
     1    1    2 1
     2    1   36 1
     3    1   37 1
     4    1   38 1
     5    2    3 1
     6    2   39 1
     7    2   40 1
     8    3    4 1
     9    4    5 2
    10    4    6 1
    11    6   14 1
    12    6    7 2
    13    7    8 1
    14    7   35 1
    15    8    9 1
    16    8   41 1
    17    9   13 1
    18    9   10 2
    19   10   11 1
    20   11   12 2
    21   11   32 1
    22   12   13 1
    23   13   14 1
    24   14   15 1
    25   14   16 1
    26   16   21 ar
    27   16   17 ar
    28   17   18 ar
    29   17   42 1
    30   18   19 ar
    31   18   43 1
    32   19   20 ar
    33   19   22 1
    34   20   21 ar
    35   20   44 1
    36   21   45 1
    37   22   23 1
    38   23   24 1
    39   23   46 1
    40   23   47 1
    41   24   29 ar
    42   24   25 ar
    43   25   26 ar
    44   25   31 1
    45   26   27 ar
    46   26   48 1
    47   27   28 ar
    48   27   49 1
    49   28   29 ar
    50   28   50 1
    51   29   30 1
    52   32   33 1
    53   33   34 1
    54   33   51 1
    55   33   52 1
    56   34   53 1
    57   34   54 1
    58   34   55 1
    59   35   56 1
    60   35   57 1
    61   35   58 1
@<TRIPOS>MOLECULE
ZINC06075526
   62    64     0     0     0
SMALL
USER_CHARGES
2-[[4-(3-methoxypropyl)-5-(4-tert-butylphenyl)-1,2,4-triazol-3-yl]sulfanyl]-1-morpholino-ethanone
@<TRIPOS>ATOM
      1 C1          1.4296   -4.7299    0.9305 C.3       1 <0>        -0.1406
      2 C2          0.2938   -4.2728    0.0129 C.3       1 <0>        -0.0330
      3 C3         -1.0318   -4.8466    0.5174 C.3       1 <0>        -0.1467
      4 C4          0.5561   -4.7702   -1.4100 C.3       1 <0>        -0.1402
      5 C5          0.2223   -2.7675    0.0137 C.ar      1 <0>        -0.0513
      6 C6          1.3124   -2.0260   -0.4059 C.ar      1 <0>        -0.1119
      7 C7          1.2535   -0.6477   -0.4076 C.ar      1 <0>        -0.0689
      8 C8          0.0909   -0.0014    0.0151 C.ar      1 <0>        -0.0257
      9 C9         -1.0032   -0.7553    0.4426 C.ar      1 <0>        -0.1140
     10 C10        -0.9331   -2.1331    0.4344 C.ar      1 <0>        -0.1172
     11 C11         0.0208    1.4753    0.0159 C.2       1 <0>         0.2332
     12 N1          1.0380    2.3047   -0.0056 N.2       1 <0>        -0.2668
     13 N2          0.6149    3.5181    0.0025 N.2       1 <0>        -0.2900
     14 C12        -0.6991    3.5378    0.0298 C.2       1 <0>         0.1437
     15 N3         -1.1232    2.2396    0.0332 N.pl3     1 <0>        -0.4536
     16 C13        -2.5075    1.7607    0.0538 C.3       1 <0>         0.0970
     17 C14        -3.0079    1.7092    1.4988 C.3       1 <0>        -0.1440
     18 C15        -4.4536    1.2090    1.5204 C.3       1 <0>         0.0655
     19 O1         -4.9209    1.1609    2.8699 O.3       1 <0>        -0.3882
     20 C16        -6.2685    0.7042    3.0025 C.3       1 <0>         0.0308
     21 S1         -1.7228    4.9717    0.0504 S.3       1 <0>         0.0857
     22 C17        -0.4550    6.2633    0.0242 C.3       1 <0>        -0.1475
     23 C18        -1.1169    7.6172    0.0374 C.2       1 <0>         0.5384
     24 O2         -2.3266    7.7006    0.0621 O.2       1 <0>        -0.5215
     25 N4         -0.3645    8.7353    0.0218 N.am      1 <0>        -0.6101
     26 C19         1.1049    8.6592   -0.0019 C.3       1 <0>         0.0666
     27 C20         1.6128    9.5576   -1.1411 C.3       1 <0>         0.0465
     28 O3          1.0474   10.8627   -0.9967 O.3       1 <0>        -0.3767
     29 C21        -0.3780   10.8978   -1.1013 C.3       1 <0>         0.0472
     30 C22        -0.9880   10.0681    0.0343 C.3       1 <0>         0.0771
     31 H1          1.2427   -4.3756    1.9442 H         1 <0>         0.0577
     32 H2          1.4813   -5.8187    0.9299 H         1 <0>         0.0612
     33 H3          2.3739   -4.3211    0.5710 H         1 <0>         0.0589
     34 H4         -1.8409   -4.5209   -0.1362 H         1 <0>         0.0592
     35 H5         -0.9801   -5.9354    0.5169 H         1 <0>         0.0611
     36 H6         -1.2187   -4.4922    1.5312 H         1 <0>         0.0598
     37 H7          1.5004   -4.3614   -1.7695 H         1 <0>         0.0587
     38 H8          0.6078   -5.8589   -1.4106 H         1 <0>         0.0612
     39 H9         -0.2531   -4.4445   -2.0637 H         1 <0>         0.0570
     40 H10         2.2113   -2.5273   -0.7331 H         1 <0>         0.1308
     41 H11         2.1053   -0.0700   -0.7351 H         1 <0>         0.1363
     42 H12        -1.9041   -0.2612    0.7751 H         1 <0>         0.1298
     43 H13        -1.7805   -2.7177    0.7607 H         1 <0>         0.1340
     44 H14        -3.1353    2.4389   -0.5241 H         1 <0>         0.1053
     45 H15        -2.5533    0.7628   -0.3823 H         1 <0>         0.1117
     46 H16        -2.3801    1.0310    2.0767 H         1 <0>         0.0849
     47 H17        -2.9621    2.7071    1.9349 H         1 <0>         0.0898
     48 H18        -5.0814    1.8872    0.9424 H         1 <0>         0.0577
     49 H19        -4.4994    0.2111    1.0843 H         1 <0>         0.0544
     50 H20        -6.5475    0.6965    4.0561 H         1 <0>         0.0895
     51 H21        -6.9339    1.3719    2.4553 H         1 <0>         0.0444
     52 H22        -6.3519   -0.3042    2.5971 H         1 <0>         0.0434
     53 H23         0.1842    6.1628    0.9014 H         1 <0>         0.1292
     54 H24         0.1479    6.1624   -0.8782 H         1 <0>         0.1281
     55 H25         1.5059    9.0069    0.9502 H         1 <0>         0.0866
     56 H26         1.4164    7.6296   -0.1780 H         1 <0>         0.0996
     57 H27         1.3150    9.1359   -2.1011 H         1 <0>         0.0591
     58 H28         2.6997    9.6245   -1.0943 H         1 <0>         0.1114
     59 H29        -0.6830   10.4810   -2.0611 H         1 <0>         0.0582
     60 H30        -0.7233   11.9288   -1.0249 H         1 <0>         0.1108
     61 H31        -2.0630    9.9719   -0.1179 H         1 <0>         0.1052
     62 H32        -0.7941   10.5552    0.9899 H         1 <0>         0.0815
@<TRIPOS>BOND
     1    1    2 1
     2    1   31 1
     3    1   32 1
     4    1   33 1
     5    2    3 1
     6    2    4 1
     7    2    5 1
     8    3   34 1
     9    3   35 1
    10    3   36 1
    11    4   37 1
    12    4   38 1
    13    4   39 1
    14    5   10 ar
    15    5    6 ar
    16    6    7 ar
    17    6   40 1
    18    7    8 ar
    19    7   41 1
    20    8    9 ar
    21    8   11 1
    22    9   10 ar
    23    9   42 1
    24   10   43 1
    25   11   15 1
    26   11   12 2
    27   12   13 1
    28   13   14 2
    29   14   15 1
    30   14   21 1
    31   15   16 1
    32   16   17 1
    33   16   44 1
    34   16   45 1
    35   17   18 1
    36   17   46 1
    37   17   47 1
    38   18   19 1
    39   18   48 1
    40   18   49 1
    41   19   20 1
    42   20   50 1
    43   20   51 1
    44   20   52 1
    45   21   22 1
    46   22   23 1
    47   22   53 1
    48   22   54 1
    49   23   24 2
    50   23   25 am
    51   25   30 1
    52   25   26 1
    53   26   27 1
    54   26   55 1
    55   26   56 1
    56   27   28 1
    57   27   57 1
    58   27   58 1
    59   28   29 1
    60   29   30 1
    61   29   59 1
    62   29   60 1
    63   30   61 1
    64   30   62 1
@<TRIPOS>MOLECULE
ZINC11123391
   56    58     0     0     0
SMALL
USER_CHARGES
ethyl 2-[[3-(3-ethoxypropyl)-8,9-dimethyl-2-oxo-7-thia-3,5-diazabicyclo[4.3.0]nona-4,8,10-trien-4-yl]sulfanylmethyl]furan-3-carboxylate
@<TRIPOS>ATOM
      1 C1          1.5822    7.7487    7.8975 C.3       1 <0>        -0.1528
      2 C2          0.2665    7.0551    7.5388 C.3       1 <0>         0.0574
      3 O1         -0.1287    7.4362    6.2195 O.3       1 <0>        -0.3875
      4 C3         -1.3525    6.8403    5.7845 C.3       1 <0>         0.0693
      5 C4         -1.6760    7.3166    4.3669 C.3       1 <0>        -0.1352
      6 C5         -2.9863    6.6786    3.9011 C.3       1 <0>         0.0883
      7 N1         -3.2960    7.1347    2.5438 N.am      1 <0>        -0.5086
      8 C6         -4.0336    8.2472    2.3735 C.2       1 <0>         0.5622
      9 O2         -4.4416    8.8712    3.3380 O.2       1 <0>        -0.5132
     10 C7         -4.3331    8.6880    1.0459 C.2       1 <0>        -0.2486
     11 C8         -5.1005    9.8426    0.6114 C.2       1 <0>        -0.0556
     12 C9         -5.2579   10.0682   -0.7012 C.2       1 <0>        -0.1660
     13 S1         -4.3708    8.7221   -1.4622 S.3       1 <0>         0.1385
     14 C10        -3.8138    7.8946    0.0054 C.2       1 <0>         0.1189
     15 N2         -3.0873    6.8093    0.2426 N.2       1 <0>        -0.4963
     16 C11        -2.8307    6.4233    1.4760 C.2       1 <0>         0.3745
     17 S2         -1.8678    4.9734    1.7505 S.3       1 <0>         0.0541
     18 C12        -1.5498    4.4786    0.0388 C.3       1 <0>        -0.0467
     19 C13        -0.7171    3.2226    0.0254 C.2       1 <0>         0.0814
     20 C14        -1.1985    1.9453    0.0175 C.2       1 <0>        -0.1974
     21 C15        -0.0126    1.0758    0.0080 C.2       1 <0>        -0.1703
     22 C16         1.0474    1.8982    0.0023 C.2       1 <0>        -0.0186
     23 O3          0.6180    3.1698    0.0127 O.3       1 <0>        -0.1586
     24 C17        -2.6098    1.5259    0.0209 C.2       1 <0>         0.5378
     25 O4         -3.4922    2.3616    0.0285 O.2       1 <0>        -0.4995
     26 O5         -2.9233    0.2151    0.0155 O.3       1 <0>        -0.3484
     27 C18        -4.3349   -0.1251    0.0193 C.3       1 <0>         0.0634
     28 C19        -4.4927   -1.6469    0.0122 C.3       1 <0>        -0.1538
     29 C20        -6.0064   11.1908   -1.3724 C.3       1 <0>        -0.0671
     30 C21        -5.7122   10.7761    1.6240 C.3       1 <0>        -0.1054
     31 H1          1.4460    8.8294    7.8569 H         1 <0>         0.0633
     32 H2          1.8837    7.4580    8.9038 H         1 <0>         0.0723
     33 H3          2.3543    7.4529    7.1872 H         1 <0>         0.0634
     34 H4         -0.5055    7.3509    8.2491 H         1 <0>         0.0495
     35 H5          0.4027    5.9744    7.5794 H         1 <0>         0.0496
     36 H6         -2.1582    7.1317    6.4584 H         1 <0>         0.0550
     37 H7         -1.2499    5.7552    5.7886 H         1 <0>         0.0544
     38 H8         -0.8703    7.0252    3.6930 H         1 <0>         0.0825
     39 H9         -1.7786    8.4017    4.3628 H         1 <0>         0.0838
     40 H10        -3.7920    6.9700    4.5750 H         1 <0>         0.1142
     41 H11        -2.8837    5.5935    3.9053 H         1 <0>         0.1005
     42 H12        -1.0134    5.2756   -0.4762 H         1 <0>         0.1289
     43 H13        -2.4969    4.2920   -0.4675 H         1 <0>         0.1508
     44 H14         0.0021   -0.0041    0.0020 H         1 <0>         0.1696
     45 H15         2.0814    1.5866   -0.0093 H         1 <0>         0.2188
     46 H16        -4.8050    0.2848    0.9132 H         1 <0>         0.0727
     47 H17        -4.8119    0.2937   -0.8668 H         1 <0>         0.0726
     48 H18        -4.0225   -2.0568   -0.8817 H         1 <0>         0.0677
     49 H19        -4.0156   -2.0658    0.8982 H         1 <0>         0.0677
     50 H20        -5.5523   -1.9024    0.0150 H         1 <0>         0.0824
     51 H21        -5.3305   12.0295   -1.5392 H         1 <0>         0.0811
     52 H22        -6.3993   10.8450   -2.3285 H         1 <0>         0.0757
     53 H23        -6.8310   11.5099   -0.7349 H         1 <0>         0.0848
     54 H24        -5.0029   11.5686    1.8626 H         1 <0>         0.0722
     55 H25        -6.6212   11.2141    1.2118 H         1 <0>         0.0677
     56 H26        -5.9549   10.2209    2.5300 H         1 <0>         0.0824
@<TRIPOS>BOND
     1    1    2 1
     2    1   31 1
     3    1   32 1
     4    1   33 1
     5    2    3 1
     6    2   34 1
     7    2   35 1
     8    3    4 1
     9    4    5 1
    10    4   36 1
    11    4   37 1
    12    5    6 1
    13    5   38 1
    14    5   39 1
    15    6    7 1
    16    6   40 1
    17    6   41 1
    18    7   16 1
    19    7    8 am
    20    8    9 2
    21    8   10 1
    22   10   14 2
    23   10   11 1
    24   11   12 2
    25   11   30 1
    26   12   13 1
    27   12   29 1
    28   13   14 1
    29   14   15 1
    30   15   16 2
    31   16   17 1
    32   17   18 1
    33   18   19 1
    34   18   42 1
    35   18   43 1
    36   19   23 1
    37   19   20 2
    38   20   21 1
    39   20   24 1
    40   21   22 2
    41   21   44 1
    42   22   23 1
    43   22   45 1
    44   24   25 2
    45   24   26 1
    46   26   27 1
    47   27   28 1
    48   27   46 1
    49   27   47 1
    50   28   48 1
    51   28   49 1
    52   28   50 1
    53   29   51 1
    54   29   52 1
    55   29   53 1
    56   30   54 1
    57   30   55 1
    58   30   56 1
@<TRIPOS>MOLECULE
ZINC22133479
   58    60     0     0     0
SMALL
USER_CHARGES
N-(2-cyanoethyl)-N-(3,4-dimethylphenyl)-2-[[4-(2-furylmethyl)-5-isopropyl-1,2,4-triazol-3-yl]sulfanyl]acetamide
@<TRIPOS>ATOM
      1 C1        -14.6188   -1.1111    1.8170 C.3       1 <0>        -0.1184
      2 C2        -13.1194   -1.1915    1.6882 C.ar      1 <0>        -0.0804
      3 C3        -12.3122   -0.5944    2.6393 C.ar      1 <0>        -0.1047
      4 C4        -10.9379   -0.6715    2.5275 C.ar      1 <0>        -0.1062
      5 C5        -10.3666   -1.3387    1.4516 C.ar      1 <0>         0.1317
      6 C6        -11.1798   -1.9367    0.4981 C.ar      1 <0>        -0.1117
      7 C7        -12.5538   -1.8616    0.6193 C.ar      1 <0>        -0.0759
      8 C8        -13.4372   -2.5103   -0.4151 C.3       1 <0>        -0.1169
      9 N1         -8.9745   -1.4129    1.3317 N.am      1 <0>        -0.5615
     10 C9         -8.2937   -2.7009    1.4855 C.3       1 <0>         0.1072
     11 C10        -7.9220   -2.9090    2.9550 C.3       1 <0>        -0.0482
     12 C11        -7.2379   -4.2032    3.1095 C.1       1 <0>         0.2023
     13 N2         -6.7099   -5.2020    3.2288 N.1       1 <0>        -0.4166
     14 C12        -8.2599   -0.2994    1.0748 C.2       1 <0>         0.5394
     15 O1         -8.8287    0.7503    0.8608 O.2       1 <0>        -0.4989
     16 C13        -6.7542   -0.3585    1.0536 C.3       1 <0>        -0.1523
     17 S1         -6.0911    1.2845    0.6834 S.3       1 <0>         0.0815
     18 C14        -4.3649    0.9331    0.7203 C.2       1 <0>         0.1402
     19 N3         -3.8104   -0.2325    0.9602 N.2       1 <0>        -0.2909
     20 N4         -2.5307   -0.1262    0.9081 N.2       1 <0>        -0.2767
     21 C15        -2.1946    1.1026    0.6343 C.2       1 <0>         0.2029
     22 N5         -3.3506    1.8227    0.5098 N.pl3     1 <0>        -0.4600
     23 C16        -3.4750    3.2512    0.2100 C.3       1 <0>         0.1870
     24 C17        -3.5515    3.4465   -1.2824 C.2       1 <0>        -0.0612
     25 C18        -4.6779    3.4578   -2.0175 C.2       1 <0>        -0.1632
     26 C19        -4.2889    3.6717   -3.3598 C.2       1 <0>        -0.2160
     27 C20        -2.9474    3.7701   -3.3658 C.2       1 <0>        -0.0193
     28 O2         -2.5062    3.6329   -2.1047 O.3       1 <0>        -0.1695
     29 C21        -0.7918    1.6334    0.4882 C.3       1 <0>        -0.0058
     30 C22        -0.0812    0.8913   -0.6454 C.3       1 <0>        -0.1419
     31 C23        -0.0269    1.4196    1.7959 C.3       1 <0>        -0.1446
     32 H1        -14.8791   -0.5434    2.7225 H         1 <0>         0.0667
     33 H2        -15.0356   -2.1266    1.8884 H         1 <0>         0.0720
     34 H3        -15.0360   -0.6047    0.9341 H         1 <0>         0.0720
     35 H4        -12.7570   -0.0717    3.4731 H         1 <0>         0.1281
     36 H5        -10.3081   -0.2095    3.2733 H         1 <0>         0.1243
     37 H6        -10.7386   -2.4602   -0.3371 H         1 <0>         0.1258
     38 H7        -12.8119   -2.9910   -1.1819 H         1 <0>         0.0655
     39 H8        -14.0724   -1.7457   -0.8863 H         1 <0>         0.0727
     40 H9        -14.0721   -3.2677    0.0679 H         1 <0>         0.0726
     41 H10        -8.9626   -3.5105    1.1583 H         1 <0>         0.1016
     42 H11        -7.3809   -2.7088    0.8717 H         1 <0>         0.0997
     43 H12        -7.2532   -2.0993    3.2822 H         1 <0>         0.1133
     44 H13        -8.8348   -2.9011    3.5688 H         1 <0>         0.1189
     45 H14        -6.3864   -0.6896    2.0360 H         1 <0>         0.1322
     46 H15        -6.4260   -1.0691    0.2807 H         1 <0>         0.1324
     47 H16        -4.3884    3.6460    0.6788 H         1 <0>         0.1319
     48 H17        -2.5992    3.7865    0.6054 H         1 <0>         0.1203
     49 H18        -5.6862    3.3304   -1.6521 H         1 <0>         0.1550
     50 H19        -4.9430    3.7389   -4.2166 H         1 <0>         0.1540
     51 H20        -2.3298    3.9322   -4.2369 H         1 <0>         0.2078
     52 H21        -0.8443    2.7075    0.2569 H         1 <0>         0.0865
     53 H22         0.9428    1.2788   -0.7520 H         1 <0>         0.0708
     54 H23        -0.6312    1.0450   -1.5856 H         1 <0>         0.0555
     55 H24        -0.0443   -0.1834   -0.4136 H         1 <0>         0.0701
     56 H25         0.9971    1.8070    1.6893 H         1 <0>         0.0713
     57 H26         0.0100    0.3449    2.0276 H         1 <0>         0.0713
     58 H27        -0.5378    1.9531    2.6109 H         1 <0>         0.0562
@<TRIPOS>BOND
     1    1    2 1
     2    1   32 1
     3    1   33 1
     4    1   34 1
     5    2    7 ar
     6    2    3 ar
     7    3    4 ar
     8    3   35 1
     9    4    5 ar
    10    4   36 1
    11    5    6 ar
    12    5    9 1
    13    6    7 ar
    14    6   37 1
    15    7    8 1
    16    8   38 1
    17    8   39 1
    18    8   40 1
    19    9   10 1
    20    9   14 am
    21   10   11 1
    22   10   41 1
    23   10   42 1
    24   11   12 1
    25   11   43 1
    26   11   44 1
    27   12   13 3
    28   14   15 2
    29   14   16 1
    30   16   17 1
    31   16   45 1
    32   16   46 1
    33   17   18 1
    34   18   22 1
    35   18   19 2
    36   19   20 1
    37   20   21 2
    38   21   22 1
    39   21   29 1
    40   22   23 1
    41   23   24 1
    42   23   47 1
    43   23   48 1
    44   24   28 1
    45   24   25 2
    46   25   26 1
    47   25   49 1
    48   26   27 2
    49   26   50 1
    50   27   28 1
    51   27   51 1
    52   29   30 1
    53   29   31 1
    54   29   52 1
    55   30   53 1
    56   30   54 1
    57   30   55 1
    58   31   56 1
    59   31   57 1
    60   31   58 1
@<TRIPOS>MOLECULE
ZINC33587875
   58    60     0     0     0
SMALL
USER_CHARGES
N-allyl-N-[2-[benzyl(2-thienylmethyl)amino]-2-oxo-ethyl]-4-methyl-3-nitro-benzamide
@<TRIPOS>ATOM
      1 C1         -5.5628    2.7485   -1.0053 C.3       1 <0>        -0.1310
      2 C2         -4.1337    2.3284   -0.7766 C.ar      1 <0>         0.0095
      3 C3         -3.1125    3.2504   -0.9251 C.ar      1 <0>        -0.1293
      4 C4         -1.8027    2.8736   -0.7125 C.ar      1 <0>        -0.0589
      5 C5         -1.5075    1.5562   -0.3578 C.ar      1 <0>        -0.1363
      6 C6         -2.5421    0.6313   -0.2098 C.ar      1 <0>         0.0081
      7 C7         -3.8484    1.0227   -0.4197 C.ar      1 <0>        -0.0562
      8 N1         -4.9470    0.0432   -0.2632 N.pl3     1 <0>         0.0305
      9 O1         -4.6928   -1.1244   -0.0270 O.2       1 <0>        -0.1601
     10 O2         -6.1051    0.4047   -0.3705 O.3       1 <0>        -0.1502
     11 C8         -0.1054    1.1439   -0.1340 C.2       1 <0>         0.5683
     12 O3          0.1449    0.2278    0.6246 O.2       1 <0>        -0.5102
     13 N2          0.8947    1.7803   -0.7754 N.am      1 <0>        -0.5824
     14 C9          0.5893    2.8434   -1.7360 C.3       1 <0>         0.1085
     15 C10         0.9273    4.1808   -1.1294 C.2       1 <0>        -0.2051
     16 C11         1.7403    4.9966   -1.7536 C.2       1 <0>        -0.1536
     17 C12         2.2871    1.4089   -0.5119 C.3       1 <0>         0.0932
     18 C13         2.7059    0.3205   -1.4664 C.2       1 <0>         0.5054
     19 O4          1.9188   -0.1032   -2.2861 O.2       1 <0>        -0.5172
     20 N3          3.9552   -0.1820   -1.4092 N.am      1 <0>        -0.6006
     21 C14         4.3624   -1.2400   -2.3371 C.3       1 <0>         0.1532
     22 C15         4.9397   -0.6202   -3.5836 C.ar      1 <0>        -0.1081
     23 C16         4.1162   -0.3249   -4.6539 C.ar      1 <0>        -0.0952
     24 C17         4.6449    0.2485   -5.7952 C.ar      1 <0>        -0.1225
     25 C18         5.9989    0.5165   -5.8704 C.ar      1 <0>        -0.1147
     26 C19         6.8234    0.2160   -4.8023 C.ar      1 <0>        -0.1229
     27 C20         6.2937   -0.3522   -3.6588 C.ar      1 <0>        -0.1075
     28 C21         4.9060    0.3298   -0.4191 C.3       1 <0>         0.1905
     29 C22         4.7943   -0.4773    0.8486 C.2       1 <0>        -0.1840
     30 C23         5.4594   -1.6032    1.2051 C.2       1 <0>        -0.1324
     31 C24         5.1948   -2.1773    2.4344 C.2       1 <0>        -0.1631
     32 C25         4.2703   -1.6034    3.2425 C.2       1 <0>        -0.1609
     33 S1          3.7458   -0.2030    2.2673 S.3       1 <0>         0.0503
     34 H1         -5.5926    3.8135   -1.2791 H         1 <0>         0.0783
     35 H2         -6.1433    2.5903   -0.0844 H         1 <0>         0.0982
     36 H3         -5.9956    2.1484   -1.8193 H         1 <0>         0.0937
     37 H4         -3.3419    4.2683   -1.2039 H         1 <0>         0.1561
     38 H5         -1.0070    3.5953   -0.8244 H         1 <0>         0.1707
     39 H6         -2.3207   -0.3884    0.0688 H         1 <0>         0.1638
     40 H7          1.1839    2.6942   -2.6493 H         1 <0>         0.0883
     41 H8         -0.4813    2.8146   -1.9868 H         1 <0>         0.1130
     42 H9          0.4913    4.4720   -0.1624 H         1 <0>         0.1219
     43 H10         1.9870    5.9728   -1.3107 H         1 <0>         0.1101
     44 H11         2.1763    4.7054   -2.7206 H         1 <0>         0.1047
     45 H12         2.9337    2.2878   -0.6514 H         1 <0>         0.1124
     46 H13         2.3803    1.0456    0.5222 H         1 <0>         0.1191
     47 H14         5.1218   -1.8755   -1.8581 H         1 <0>         0.0885
     48 H15         3.4874   -1.8513   -2.6030 H         1 <0>         0.0955
     49 H16         3.0590   -0.5384   -4.5968 H         1 <0>         0.1264
     50 H17         4.0007    0.4836   -6.6295 H         1 <0>         0.1215
     51 H18         6.4126    0.9611   -6.7635 H         1 <0>         0.1215
     52 H19         7.8812    0.4254   -4.8610 H         1 <0>         0.1225
     53 H20         6.9379   -0.5870   -2.8243 H         1 <0>         0.1201
     54 H21         5.9285    0.2487   -0.8165 H         1 <0>         0.1093
     55 H22         4.6790    1.3843   -0.2036 H         1 <0>         0.0949
     56 H23         6.1874   -2.0436    0.5399 H         1 <0>         0.1323
     57 H24         5.7137   -3.0723    2.7444 H         1 <0>         0.1354
     58 H25         3.9371   -1.9131    4.2221 H         1 <0>         0.1866
@<TRIPOS>BOND
     1    1    2 1
     2    1   34 1
     3    1   35 1
     4    1   36 1
     5    2    7 ar
     6    2    3 ar
     7    3    4 ar
     8    3   37 1
     9    4    5 ar
    10    4   38 1
    11    5    6 ar
    12    5   11 1
    13    6    7 ar
    14    6   39 1
    15    7    8 1
    16    8    9 2
    17    8   10 1
    18   11   12 2
    19   11   13 am
    20   13   14 1
    21   13   17 1
    22   14   15 1
    23   14   40 1
    24   14   41 1
    25   15   16 2
    26   15   42 1
    27   16   43 1
    28   16   44 1
    29   17   18 1
    30   17   45 1
    31   17   46 1
    32   18   19 2
    33   18   20 am
    34   20   21 1
    35   20   28 1
    36   21   22 1
    37   21   47 1
    38   21   48 1
    39   22   27 ar
    40   22   23 ar
    41   23   24 ar
    42   23   49 1
    43   24   25 ar
    44   24   50 1
    45   25   26 ar
    46   25   51 1
    47   26   27 ar
    48   26   52 1
    49   27   53 1
    50   28   29 1
    51   28   54 1
    52   28   55 1
    53   29   33 1
    54   29   30 2
    55   30   31 1
    56   30   56 1
    57   31   32 2
    58   31   57 1
    59   32   33 1
    60   32   58 1
@<TRIPOS>MOLECULE
ZINC36735108
   66    67     0     0     0
SMALL
USER_CHARGES

@<TRIPOS>ATOM
      1 C1          2.6517    1.0922   -0.6410 C.3       1 <0>        -0.0893
      2 C2          2.3090   -0.3738   -0.5744 C.2       1 <0>         0.0146
      3 C3          1.9752   -1.1429   -1.6239 C.2       1 <0>        -0.1564
      4 C4          1.7286   -2.4895   -1.0890 C.2       1 <0>        -0.2228
      5 C5          1.9447   -2.3992    0.2765 C.2       1 <0>         0.1164
      6 N1          2.2944   -1.1316    0.5613 N.pl3     1 <0>        -0.4236
      7 C6          2.6114   -0.6334    1.9021 C.3       1 <0>         0.0900
      8 C7          1.3331   -0.1275    2.5735 C.3       1 <0>        -0.1323
      9 C8          1.6640    0.3927    3.9738 C.3       1 <0>        -0.0936
     10 C9          0.4115    1.0120    4.5970 C.3       1 <0>        -0.1489
     11 C10         2.1485   -0.7663    4.8471 C.3       1 <0>        -0.1540
     12 C11         1.8156   -3.5258    1.2692 C.3       1 <0>        -0.1037
     13 C12         1.3475   -3.6432   -1.8199 C.2       1 <0>         0.1477
     14 C13         0.8389   -3.5145   -3.0983 C.2       1 <0>        -0.1608
     15 C14         0.5988   -2.2132   -3.6456 C.1       1 <0>         0.2722
     16 N2          0.4083   -1.1809   -4.0799 N.1       1 <0>        -0.4198
     17 C15         0.5448   -4.7115   -3.8951 C.2       1 <0>         0.5302
     18 O1          0.7488   -5.8165   -3.4303 O.2       1 <0>        -0.5060
     19 O2          0.0485   -4.5859   -5.1427 O.3       1 <0>        -0.3187
     20 C16        -0.2143   -5.7930   -5.8609 C.3       1 <0>         0.0717
     21 H1          0.4808   -6.5674   -5.5366 H         1 <0>         0.1154
     22 C17        -1.6490   -6.2479   -5.5862 C.3       1 <0>        -0.1801
     23 C18        -0.0392   -5.5472   -7.3374 C.2       1 <0>         0.5196
     24 O3          0.0024   -4.4120   -7.7625 O.2       1 <0>        -0.4766
     25 N3          0.0711   -6.5888   -8.1855 N.am      1 <0>        -0.5461
     26 C19        -0.1297   -7.9554   -7.6973 C.3       1 <0>         0.0960
     27 C20        -1.5570   -8.4059   -8.0150 C.3       1 <0>        -0.0560
     28 C21        -1.7755   -9.7588   -7.4778 C.1       1 <0>         0.2003
     29 N4         -1.9442  -10.8029   -7.0632 N.1       1 <0>        -0.4115
     30 C22         0.3775   -6.3650   -9.5324 C.ar      1 <0>         0.1483
     31 C23         0.3387   -7.4164  -10.4388 C.ar      1 <0>        -0.1597
     32 C24         0.6417   -7.1922  -11.7675 C.ar      1 <0>        -0.0954
     33 C25         0.9834   -5.9225  -12.1956 C.ar      1 <0>        -0.1405
     34 C26         1.0234   -4.8735  -11.2954 C.ar      1 <0>        -0.0949
     35 C27         0.7155   -5.0899   -9.9665 C.ar      1 <0>        -0.1572
     36 H2          3.7234    1.2078   -0.8031 H         1 <0>         0.0744
     37 H3          2.1077    1.5555   -1.4641 H         1 <0>         0.0840
     38 H4          2.3719    1.5736    0.2961 H         1 <0>         0.0663
     39 H5          1.9024   -0.8332   -2.6559 H         1 <0>         0.1541
     40 H6          3.0398   -1.4398    2.4974 H         1 <0>         0.0980
     41 H7          3.3294    0.1831    1.8260 H         1 <0>         0.0961
     42 H8          0.9046    0.6788    1.9782 H         1 <0>         0.0729
     43 H9          0.6150   -0.9440    2.6496 H         1 <0>         0.0728
     44 H10         2.4471    1.1479    3.9051 H         1 <0>         0.0739
     45 H11        -0.3715    0.2569    4.6657 H         1 <0>         0.0563
     46 H12         0.6473    1.3827    5.5946 H         1 <0>         0.0592
     47 H13         0.0663    1.8378    3.9748 H         1 <0>         0.0559
     48 H14         1.3655   -1.5215    4.9158 H         1 <0>         0.0575
     49 H15         3.0409   -1.2075    4.4031 H         1 <0>         0.0550
     50 H16         2.3843   -0.3957    5.8447 H         1 <0>         0.0598
     51 H17         2.7744   -4.0347    1.3679 H         1 <0>         0.0879
     52 H18         1.5159   -3.1244    2.2373 H         1 <0>         0.0755
     53 H19         1.0630   -4.2329    0.9203 H         1 <0>         0.0922
     54 H20         1.4547   -4.6226   -1.3775 H         1 <0>         0.1568
     55 H21        -2.3466   -5.5364   -6.0281 H         1 <0>         0.0799
     56 H22        -1.8081   -7.2330   -6.0248 H         1 <0>         0.0845
     57 H23        -1.8144   -6.2983   -4.5100 H         1 <0>         0.0850
     58 H24         0.5794   -8.6237   -8.1859 H         1 <0>         0.1056
     59 H25         0.0285   -7.9830   -6.6192 H         1 <0>         0.1048
     60 H26        -2.2660   -7.7149   -7.5589 H         1 <0>         0.1203
     61 H27        -1.7029   -8.4158   -9.0951 H         1 <0>         0.1223
     62 H28         0.0723   -8.4083  -10.1051 H         1 <0>         0.1268
     63 H29         0.6121   -8.0095  -12.4729 H         1 <0>         0.1264
     64 H30         1.2200   -5.7497  -13.2351 H         1 <0>         0.1222
     65 H31         1.2910   -3.8831  -11.6327 H         1 <0>         0.1258
     66 H32         0.7419   -4.2693   -9.2649 H         1 <0>         0.1730
@<TRIPOS>BOND
     1    1    2 1
     2    1   36 1
     3    1   37 1
     4    1   38 1
     5    2    6 1
     6    2    3 2
     7    3    4 1
     8    3   39 1
     9    4    5 2
    10    4   13 1
    11    5    6 1
    12    5   12 1
    13    6    7 1
    14    7    8 1
    15    7   40 1
    16    7   41 1
    17    8    9 1
    18    8   42 1
    19    8   43 1
    20    9   10 1
    21    9   11 1
    22    9   44 1
    23   10   45 1
    24   10   46 1
    25   10   47 1
    26   11   48 1
    27   11   49 1
    28   11   50 1
    29   12   51 1
    30   12   52 1
    31   12   53 1
    32   13   14 2
    33   13   54 1
    34   14   15 1
    35   14   17 1
    36   15   16 3
    37   17   18 2
    38   17   19 1
    39   19   20 1
    40   20   21 1
    41   20   22 1
    42   20   23 1
    43   22   55 1
    44   22   56 1
    45   22   57 1
    46   23   24 2
    47   23   25 am
    48   25   26 1
    49   25   30 1
    50   26   27 1
    51   26   58 1
    52   26   59 1
    53   27   28 1
    54   27   60 1
    55   27   61 1
    56   28   29 3
    57   30   35 ar
    58   30   31 ar
    59   31   32 ar
    60   31   62 1
    61   32   33 ar
    62   32   63 1
    63   33   34 ar
    64   33   64 1
    65   34   35 ar
    66   34   65 1
    67   35   66 1
@<TRIPOS>MOLECULE
ZINC03239736
   50    51     0     0     0
SMALL
USER_CHARGES
[2-oxo-2-[3-(trifluoromethyl)phenyl]-ethyl] 3-(diethylsulfamoyl)benzoate
@<TRIPOS>ATOM
      1 C1          4.7127   15.8007   -2.1639 C.3       1 <0>        -0.1757
      2 C2          3.7900   14.5825   -2.2386 C.3       1 <0>         0.1188
      3 N1          4.4174   13.4517   -1.5503 N.pl3     1 <0>        -0.9945
      4 C3          5.3706   12.5977   -2.2633 C.3       1 <0>         0.1072
      5 C4          4.6098   11.5171   -3.0341 C.3       1 <0>        -0.1780
      6 S1          4.0491   13.1388    0.0336 S.o2      1 <0>         2.6891
      7 O1          3.5961   14.3631    0.5948 O.2       1 <0>        -0.9467
      8 O2          5.1476   12.4149    0.5706 O.2       1 <0>        -0.9482
      9 C5          2.6708   12.0411    0.0409 C.ar      1 <0>        -0.6904
     10 C6          1.3836   12.5492    0.0549 C.ar      1 <0>         0.0155
     11 C7          0.2958   11.6945    0.0599 C.ar      1 <0>        -0.1472
     12 C8          0.4878   10.3283    0.0463 C.ar      1 <0>        -0.0061
     13 C9          1.7837    9.8089    0.0375 C.ar      1 <0>        -0.1457
     14 C10         2.8772   10.6774    0.0321 C.ar      1 <0>         0.0450
     15 C11         1.9971    8.3471    0.0277 C.2       1 <0>         0.5133
     16 O3          3.1257    7.8982    0.0149 O.2       1 <0>        -0.4943
     17 O4          0.9400    7.5121    0.0329 O.3       1 <0>        -0.3345
     18 C12         1.2246    6.0883    0.0226 C.3       1 <0>         0.0369
     19 C13        -0.0701    5.3171    0.0304 C.2       1 <0>         0.3983
     20 O5         -1.1282    5.9090    0.0432 O.2       1 <0>        -0.4160
     21 C14        -0.0501    3.8456    0.0223 C.ar      1 <0>        -0.1674
     22 C15         1.1685    3.1592    0.0074 C.ar      1 <0>        -0.0439
     23 C16         1.1788    1.7806    0.0004 C.ar      1 <0>        -0.1260
     24 C17        -0.0126    1.0758    0.0080 C.ar      1 <0>        -0.0365
     25 C18        -1.2223    1.7477    0.0173 C.ar      1 <0>        -0.1924
     26 C19        -1.2493    3.1265    0.0299 C.ar      1 <0>        -0.0069
     27 C20        -2.5135    0.9706    0.0192 C.3       1 <0>         0.5101
     28 F1         -2.2330   -0.3999    0.0105 F         1 <0>        -0.1739
     29 F2         -3.2477    1.2890    1.1668 F         1 <0>        -0.1728
     30 F3         -3.2585    1.3015   -1.1177 F         1 <0>        -0.1727
     31 H1          5.6635   15.5662   -2.6425 H         1 <0>         0.0608
     32 H2          4.2458   16.6421   -2.6760 H         1 <0>         0.0708
     33 H3          4.8860   16.0616   -1.1198 H         1 <0>         0.0643
     34 H4          3.6166   14.3216   -3.2827 H         1 <0>         0.0825
     35 H5          2.8391   14.8170   -1.7600 H         1 <0>         0.0814
     36 H6          5.9490   13.2028   -2.9613 H         1 <0>         0.0887
     37 H7          6.0435   12.1270   -1.5464 H         1 <0>         0.0956
     38 H8          4.0313   10.9119   -2.3360 H         1 <0>         0.0532
     39 H9          3.9369   11.9877   -3.7510 H         1 <0>         0.0623
     40 H10         5.3190   10.8817   -3.5646 H         1 <0>         0.0730
     41 H11         1.2276   13.6178    0.0617 H         1 <0>         0.1491
     42 H12        -0.7061   12.0976    0.0705 H         1 <0>         0.1468
     43 H13        -0.3623    9.6622    0.0460 H         1 <0>         0.1512
     44 H14         3.8822   10.2822    0.0215 H         1 <0>         0.1557
     45 H15         1.7596    5.8495    0.8330 H         1 <0>         0.0987
     46 H16         1.7916    5.8376   -0.8739 H         1 <0>         0.1125
     47 H17         2.0988    3.7076    0.0011 H         1 <0>         0.1443
     48 H18         2.1189    1.2491   -0.0115 H         1 <0>         0.1479
     49 H19         0.0021   -0.0041    0.0020 H         1 <0>         0.1481
     50 H20        -2.1942    3.6494    0.0417 H         1 <0>         0.1486
@<TRIPOS>BOND
     1    1    2 1
     2    1   31 1
     3    1   32 1
     4    1   33 1
     5    2    3 1
     6    2   34 1
     7    2   35 1
     8    3    4 1
     9    3    6 1
    10    4    5 1
    11    4   36 1
    12    4   37 1
    13    5   38 1
    14    5   39 1
    15    5   40 1
    16    6    7 2
    17    6    8 2
    18    6    9 1
    19    9   14 ar
    20    9   10 ar
    21   10   11 ar
    22   10   41 1
    23   11   12 ar
    24   11   42 1
    25   12   13 ar
    26   12   43 1
    27   13   14 ar
    28   13   15 1
    29   14   44 1
    30   15   16 2
    31   15   17 1
    32   17   18 1
    33   18   19 1
    34   18   45 1
    35   18   46 1
    36   19   20 2
    37   19   21 1
    38   21   26 ar
    39   21   22 ar
    40   22   23 ar
    41   22   47 1
    42   23   24 ar
    43   23   48 1
    44   24   25 ar
    45   24   49 1
    46   25   26 ar
    47   25   27 1
    48   26   50 1
    49   27   28 1
    50   27   29 1
    51   27   30 1
@<TRIPOS>MOLECULE
ZINC11297356
   51    52     0     0     0
SMALL
USER_CHARGES
4-[3-(4-allyloxy-3-bromo-5-methoxy-phenyl)prop-2-enoyl]-N,N-dimethyl-benzenesulfonamide
@<TRIPOS>ATOM
      1 C1          9.1972    4.0337    8.8351 C.3       1 <0>         0.0904
      2 N1          8.6150    3.4407   10.0415 N.pl3     1 <0>        -1.0034
      3 C2          9.3445    2.4014   10.7722 C.3       1 <0>         0.0824
      4 S1          7.1322    3.9451   10.5793 S.o2      1 <0>         2.6891
      5 O1          6.9394    5.2568   10.0680 O.2       1 <0>        -0.9475
      6 O2          7.0840    3.6546   11.9695 O.2       1 <0>        -0.9487
      7 C3          5.9227    2.9214    9.8087 C.ar      1 <0>        -0.6545
      8 C4          5.5195    1.7492   10.4237 C.ar      1 <0>        -0.0300
      9 C5          4.5727    0.9435    9.8260 C.ar      1 <0>        -0.0837
     10 C6          4.0210    1.3131    8.5980 C.ar      1 <0>        -0.1053
     11 C7          4.4364    2.4941    7.9802 C.ar      1 <0>        -0.0962
     12 C8          5.3798    3.2936    8.5915 C.ar      1 <0>        -0.0319
     13 C9          3.0052    0.4540    7.9513 C.2       1 <0>         0.4222
     14 O3          2.6484   -0.5780    8.4900 O.2       1 <0>        -0.4473
     15 C10         2.4471    0.8322    6.7044 C.2       1 <0>        -0.2388
     16 C11         1.5181    0.0465    6.1130 C.2       1 <0>         0.0063
     17 C12         0.9398    0.4384    4.8210 C.ar      1 <0>        -0.0455
     18 C13        -0.0218   -0.3738    4.2066 C.ar      1 <0>        -0.1573
     19 C14        -0.5653    0.0020    2.9947 C.ar      1 <0>         0.1187
     20 C15        -0.1491    1.1823    2.3789 C.ar      1 <0>         0.1096
     21 C16         0.8043    1.9893    2.9872 C.ar      1 <0>        -0.0807
     22 C17         1.3485    1.6245    4.1998 C.ar      1 <0>        -0.0925
     23 Br1         1.3572    3.5917    2.1491 Br        1 <0>        -0.0152
     24 O4         -0.6816    1.5467    1.1837 O.3       1 <0>        -0.3093
     25 C18        -0.0127    1.0858    0.0080 C.3       1 <0>         0.0941
     26 C19        -0.7416    1.5850   -1.2129 C.2       1 <0>        -0.1528
     27 C20        -0.0687    2.0949   -2.2146 C.2       1 <0>        -0.1702
     28 O5         -1.5029   -0.7817    2.3980 O.3       1 <0>        -0.2991
     29 C21        -1.8824   -1.9762    3.0846 C.3       1 <0>         0.0205
     30 H1          9.7953    4.9027    9.1097 H         1 <0>         0.0644
     31 H2          9.8308    3.2989    8.3384 H         1 <0>         0.0764
     32 H3          8.3988    4.3409    8.1596 H         1 <0>         0.0726
     33 H4          8.7584    2.0842   11.6347 H         1 <0>         0.0865
     34 H5          9.5161    1.5482   10.1159 H         1 <0>         0.0641
     35 H6         10.3018    2.7985   11.1097 H         1 <0>         0.0704
     36 H7          5.9468    1.4647   11.3738 H         1 <0>         0.1474
     37 H8          4.2586    0.0291   10.3071 H         1 <0>         0.1457
     38 H9          4.0170    2.7832    7.0279 H         1 <0>         0.1429
     39 H10         5.6988    4.2097    8.1168 H         1 <0>         0.1477
     40 H11         2.7635    1.7475    6.2265 H         1 <0>         0.1385
     41 H12         1.2017   -0.8689    6.5909 H         1 <0>         0.1436
     42 H13        -0.3406   -1.2896    4.6821 H         1 <0>         0.1476
     43 H14         2.0901    2.2532    4.6702 H         1 <0>         0.1458
     44 H15         0.0021   -0.0041    0.0020 H         1 <0>         0.0661
     45 H16         1.0099    1.4631    0.0003 H         1 <0>         0.0619
     46 H17        -1.8186    1.5225   -1.2620 H         1 <0>         0.1202
     47 H18         1.0083    2.1575   -2.1655 H         1 <0>         0.0988
     48 H19        -0.5911    2.4527   -3.0895 H         1 <0>         0.1083
     49 H20        -2.6350   -2.5069    2.5015 H         1 <0>         0.1077
     50 H21        -1.0079   -2.6136    3.2152 H         1 <0>         0.0594
     51 H22        -2.2937   -1.7191    4.0607 H         1 <0>         0.0606
@<TRIPOS>BOND
     1    1    2 1
     2    1   30 1
     3    1   31 1
     4    1   32 1
     5    2    3 1
     6    2    4 1
     7    3   33 1
     8    3   34 1
     9    3   35 1
    10    4    5 2
    11    4    6 2
    12    4    7 1
    13    7   12 ar
    14    7    8 ar
    15    8    9 ar
    16    8   36 1
    17    9   10 ar
    18    9   37 1
    19   10   11 ar
    20   10   13 1
    21   11   12 ar
    22   11   38 1
    23   12   39 1
    24   13   14 2
    25   13   15 1
    26   15   16 2
    27   15   40 1
    28   16   17 1
    29   16   41 1
    30   17   22 ar
    31   17   18 ar
    32   18   19 ar
    33   18   42 1
    34   19   20 ar
    35   19   28 1
    36   20   21 ar
    37   20   24 1
    38   21   22 ar
    39   21   23 1
    40   22   43 1
    41   24   25 1
    42   25   26 1
    43   25   44 1
    44   25   45 1
    45   26   27 2
    46   26   46 1
    47   27   47 1
    48   27   48 1
    49   28   29 1
    50   29   49 1
    51   29   50 1
    52   29   51 1
@<TRIPOS>MOLECULE
ZINC17897713
   55    58     0     0     0
SMALL
USER_CHARGES
N-allyl-2-[[4-(3-chlorophenyl)-5-pyrrolidin-1-yl-1,2,4-triazol-3-yl]sulfanyl]-N-(2-thienylmethyl)acetamide
@<TRIPOS>ATOM
      1 C1         -4.7428    3.0103   -2.8095 C.2       1 <0>        -0.1650
      2 C2         -3.9629    2.7201   -1.7977 C.2       1 <0>        -0.1870
      3 C3         -2.5772    2.1818   -2.0445 C.3       1 <0>         0.1299
      4 N1         -1.5963    3.0234   -1.3548 N.am      1 <0>        -0.5973
      5 C4         -1.2055    2.7140    0.0228 C.3       1 <0>         0.2016
      6 C5         -0.0221    1.7810    0.0118 C.2       1 <0>        -0.1710
      7 C6          1.3000    2.0794    0.0008 C.2       1 <0>        -0.1303
      8 C7          2.2199    1.0478   -0.0135 C.2       1 <0>        -0.1598
      9 C8          1.7727   -0.2318   -0.0161 C.2       1 <0>        -0.1652
     10 S1          0.0021   -0.0041    0.0020 S.3       1 <0>         0.0323
     11 C9         -1.0534    4.0823   -1.9876 C.2       1 <0>         0.5437
     12 O1         -0.2413    4.7790   -1.4166 O.2       1 <0>        -0.5145
     13 C10        -1.4553    4.4005   -3.4047 C.3       1 <0>        -0.1494
     14 S2         -0.5577    5.8713   -3.9721 S.3       1 <0>         0.0878
     15 C11        -1.1296    6.1097   -5.6215 C.2       1 <0>         0.1975
     16 N2         -2.0066    5.3642   -6.2488 N.2       1 <0>        -0.3076
     17 N3         -2.1836    5.8909   -7.5347 N.2       1 <0>        -0.3338
     18 C12        -1.4097    6.9415   -7.6537 C.2       1 <0>         0.4125
     19 N4         -0.7406    7.1098   -6.4719 N.pl3     1 <0>        -0.4399
     20 C13         0.1832    8.1251   -6.1839 C.ar      1 <0>         0.1172
     21 C14         1.5138    7.8077   -5.9467 C.ar      1 <0>        -0.0986
     22 C15         2.4218    8.8091   -5.6632 C.ar      1 <0>        -0.0909
     23 C16         2.0073   10.1274   -5.6159 C.ar      1 <0>        -0.0923
     24 C17         0.6818   10.4472   -5.8514 C.ar      1 <0>        -0.0246
     25 C18        -0.2301    9.4491   -6.1412 C.ar      1 <0>        -0.0807
     26 Cl1         0.1649   12.1034   -5.7899 Cl        1 <0>        -0.0510
     27 N5         -1.2929    7.7462   -8.7799 N.pl3     1 <0>        -0.4369
     28 C19         0.0878    7.7009   -9.3256 C.3       1 <0>         0.0383
     29 C20        -0.0931    8.1798  -10.7879 C.3       1 <0>        -0.1206
     30 C21        -1.4430    7.5458  -11.1949 C.3       1 <0>        -0.1313
     31 C22        -2.1724    7.2663   -9.8678 C.3       1 <0>         0.0445
     32 H1         -5.7359    3.3961   -2.6326 H         1 <0>         0.1043
     33 H2         -4.3926    2.8637   -3.8206 H         1 <0>         0.1023
     34 H3         -4.3131    2.8667   -0.7866 H         1 <0>         0.1155
     35 H4         -2.3710    2.1862   -3.1148 H         1 <0>         0.0885
     36 H5         -2.5109    1.1618   -1.6659 H         1 <0>         0.0945
     37 H6         -2.0392    2.2375    0.5386 H         1 <0>         0.0983
     38 H7         -0.9371    3.6352    0.5400 H         1 <0>         0.1113
     39 H8          1.6298    3.1078    0.0028 H         1 <0>         0.1371
     40 H9          3.2792    1.2581   -0.0229 H         1 <0>         0.1345
     41 H10         2.3402   -1.1506   -0.0268 H         1 <0>         0.1860
     42 H11        -1.2130    3.5558   -4.0495 H         1 <0>         0.1257
     43 H12        -2.5277    4.5917   -3.4440 H         1 <0>         0.1285
     44 H13         1.8388    6.7785   -5.9841 H         1 <0>         0.1375
     45 H14         3.4569    8.5622   -5.4787 H         1 <0>         0.1470
     46 H15         2.7192   10.9087   -5.3944 H         1 <0>         0.1445
     47 H16        -1.2636    9.6993   -6.3300 H         1 <0>         0.1422
     48 H17         0.7409    8.3792   -8.7766 H         1 <0>         0.0906
     49 H18         0.4785    6.6837   -9.2995 H         1 <0>         0.0580
     50 H19         0.7139    7.8069  -11.4186 H         1 <0>         0.0830
     51 H20        -0.1485    9.2675  -10.8335 H         1 <0>         0.0825
     52 H21        -1.2757    6.6155  -11.7378 H         1 <0>         0.0758
     53 H22        -2.0195    8.2418  -11.8042 H         1 <0>         0.0821
     54 H23        -2.3478    6.1960   -9.7587 H         1 <0>         0.0794
     55 H24        -3.1212    7.8023   -9.8421 H         1 <0>         0.0930
@<TRIPOS>BOND
     1    1    2 2
     2    1   32 1
     3    1   33 1
     4    2    3 1
     5    2   34 1
     6    3    4 1
     7    3   35 1
     8    3   36 1
     9    4    5 1
    10    4   11 am
    11    5    6 1
    12    5   37 1
    13    5   38 1
    14    6   10 1
    15    6    7 2
    16    7    8 1
    17    7   39 1
    18    8    9 2
    19    8   40 1
    20    9   10 1
    21    9   41 1
    22   11   12 2
    23   11   13 1
    24   13   14 1
    25   13   42 1
    26   13   43 1
    27   14   15 1
    28   15   19 1
    29   15   16 2
    30   16   17 1
    31   17   18 2
    32   18   19 1
    33   18   27 1
    34   19   20 1
    35   20   25 ar
    36   20   21 ar
    37   21   22 ar
    38   21   44 1
    39   22   23 ar
    40   22   45 1
    41   23   24 ar
    42   23   46 1
    43   24   25 ar
    44   24   26 1
    45   25   47 1
    46   27   31 1
    47   27   28 1
    48   28   29 1
    49   28   48 1
    50   28   49 1
    51   29   30 1
    52   29   50 1
    53   29   51 1
    54   30   31 1
    55   30   52 1
    56   30   53 1
    57   31   54 1
    58   31   55 1
@<TRIPOS>MOLECULE
ZINC26574939
   56    59     0     0     0
SMALL
USER_CHARGES
N-[(3-fluoro-4-methoxy-phenyl)methyl]-N-methyl-2-[[4-phenyl-5-(2-thienylmethyl)-1,2,4-triazol-3-yl]sulfanyl]acetamide
@<TRIPOS>ATOM
      1 C1         -0.3572    2.8595   -1.7735 C.3       1 <0>         0.0641
      2 N1         -0.7213    1.5711   -1.1789 N.am      1 <0>        -0.6044
      3 C2         -0.0127    1.0858    0.0080 C.3       1 <0>         0.1581
      4 C3         -0.7181    1.5718    1.2479 C.ar      1 <0>        -0.1216
      5 C4         -0.3587    2.7792    1.8177 C.ar      1 <0>        -0.0739
      6 C5         -1.0066    3.2303    2.9518 C.ar      1 <0>        -0.1855
      7 C6         -2.0111    2.4660    3.5258 C.ar      1 <0>         0.1016
      8 C7         -2.3675    1.2506    2.9554 C.ar      1 <0>         0.0674
      9 C8         -1.7194    0.8068    1.8167 C.ar      1 <0>        -0.0910
     10 F1         -3.3460    0.5033    3.5115 F         1 <0>        -0.1302
     11 O1         -2.6463    2.9055    4.6447 O.3       1 <0>        -0.3089
     12 C9         -2.2276    4.1641    5.1762 C.3       1 <0>         0.0220
     13 C10        -1.7081    0.8323   -1.7237 C.2       1 <0>         0.5365
     14 O2         -2.0095   -0.2344   -1.2313 O.2       1 <0>        -0.5191
     15 C11        -2.4369    1.3315   -2.9446 C.3       1 <0>        -0.1534
     16 S1         -3.6949    0.1247   -3.4317 S.3       1 <0>         0.0923
     17 C12        -4.3714    0.9395   -4.8400 C.2       1 <0>         0.1500
     18 N2         -4.0016    2.1038   -5.3212 N.2       1 <0>        -0.2904
     19 N3         -4.7046    2.3924   -6.3575 N.2       1 <0>        -0.2683
     20 C13        -5.5655    1.4434   -6.5944 C.2       1 <0>         0.1988
     21 N4         -5.3854    0.4816   -5.6359 N.pl3     1 <0>        -0.4110
     22 C14        -6.0934   -0.7212   -5.4986 C.ar      1 <0>         0.0991
     23 C15        -6.0006   -1.6986   -6.4800 C.ar      1 <0>        -0.1035
     24 C16        -6.6953   -2.8842   -6.3397 C.ar      1 <0>        -0.1044
     25 C17        -7.4908   -3.0937   -5.2283 C.ar      1 <0>        -0.0981
     26 C18        -7.5893   -2.1198   -4.2517 C.ar      1 <0>        -0.1009
     27 C19        -6.8928   -0.9343   -4.3840 C.ar      1 <0>        -0.0914
     28 C20        -6.5729    1.4104   -7.7148 C.3       1 <0>         0.0519
     29 C21        -7.8566    2.0521   -7.2551 C.2       1 <0>        -0.1528
     30 C22        -8.2377    3.3506   -7.3334 C.2       1 <0>        -0.1348
     31 C23        -9.4766    3.7164   -6.8415 C.2       1 <0>        -0.1582
     32 C24       -10.2738    2.7660   -6.2954 C.2       1 <0>        -0.1678
     33 S2         -9.2734    1.2980   -6.4732 S.3       1 <0>         0.0413
     34 H1         -0.9941    3.0521   -2.6495 H         1 <0>         0.0852
     35 H2          0.6974    2.8345   -2.0853 H         1 <0>         0.0717
     36 H3         -0.5016    3.6593   -1.0322 H         1 <0>         0.0687
     37 H4          0.0022   -0.0141    0.0019 H         1 <0>         0.1001
     38 H5          1.0193    1.4665    0.0002 H         1 <0>         0.0960
     39 H6          0.4269    3.3725    1.3735 H         1 <0>         0.1326
     40 H7         -0.7275    4.1754    3.3937 H         1 <0>         0.1396
     41 H8         -1.9954   -0.1380    1.3721 H         1 <0>         0.1489
     42 H9         -2.8187    4.3979    6.0739 H         1 <0>         0.1064
     43 H10        -2.3803    4.9498    4.4217 H         1 <0>         0.0592
     44 H11        -1.1614    4.1134    5.4422 H         1 <0>         0.0599
     45 H12        -2.9201    2.2928   -2.7157 H         1 <0>         0.1286
     46 H13        -1.7211    1.4680   -3.7687 H         1 <0>         0.1298
     47 H14        -5.3830   -1.5337   -7.3504 H         1 <0>         0.1307
     48 H15        -6.6203   -3.6467   -7.1009 H         1 <0>         0.1368
     49 H16        -8.0360   -4.0200   -5.1226 H         1 <0>         0.1343
     50 H17        -8.2116   -2.2860   -3.3849 H         1 <0>         0.1372
     51 H18        -6.9698   -0.1741   -3.6207 H         1 <0>         0.1310
     52 H19        -6.1768    1.9617   -8.5804 H         1 <0>         0.1279
     53 H20        -6.7672    0.3666   -8.0026 H         1 <0>         0.1015
     54 H21        -7.5830    4.0883   -7.7733 H         1 <0>         0.1376
     55 H22        -9.8046    4.7442   -6.8920 H         1 <0>         0.1361
     56 H23       -11.2600    2.8692   -5.8674 H         1 <0>         0.1867
@<TRIPOS>BOND
     1    1    2 1
     2    1   34 1
     3    1   35 1
     4    1   36 1
     5    2    3 1
     6    2   13 am
     7    3    4 1
     8    3   37 1
     9    3   38 1
    10    4    9 ar
    11    4    5 ar
    12    5    6 ar
    13    5   39 1
    14    6    7 ar
    15    6   40 1
    16    7    8 ar
    17    7   11 1
    18    8    9 ar
    19    8   10 1
    20    9   41 1
    21   11   12 1
    22   12   42 1
    23   12   43 1
    24   12   44 1
    25   13   14 2
    26   13   15 1
    27   15   16 1
    28   15   45 1
    29   15   46 1
    30   16   17 1
    31   17   21 1
    32   17   18 2
    33   18   19 1
    34   19   20 2
    35   20   21 1
    36   20   28 1
    37   21   22 1
    38   22   27 ar
    39   22   23 ar
    40   23   24 ar
    41   23   47 1
    42   24   25 ar
    43   24   48 1
    44   25   26 ar
    45   25   49 1
    46   26   27 ar
    47   26   50 1
    48   27   51 1
    49   28   29 1
    50   28   52 1
    51   28   53 1
    52   29   33 1
    53   29   30 2
    54   30   31 1
    55   30   54 1
    56   31   32 2
    57   31   55 1
    58   32   33 1
    59   32   56 1
@<TRIPOS>MOLECULE
ZINC35869017
   71    75     0     0     0
SMALL
USER_CHARGES

@<TRIPOS>ATOM
      1 C1         -2.1487    1.3706   -2.6204 C.3       1 <0>        -0.1649
      2 C2         -1.5160    1.2432   -1.2332 C.3       1 <0>         0.0878
      3 N1         -2.0856    0.0844   -0.5411 N.pl3     1 <0>        -0.4012
      4 C3         -3.1766    0.1053    0.2381 C.2       1 <0>         0.1099
      5 C4         -3.3998   -1.1786    0.7116 C.2       1 <0>        -0.2608
      6 C5         -2.3783   -1.9996    0.1774 C.2       1 <0>        -0.0150
      7 C6         -1.5874   -1.2002   -0.5935 C.2       1 <0>        -0.0508
      8 C7         -0.4056   -1.6324   -1.3469 C.2       1 <0>         0.5370
      9 O1         -0.0588   -2.7975   -1.3182 O.2       1 <0>        -0.4918
     10 O2          0.2965   -0.7375   -2.0716 O.3       1 <0>        -0.3563
     11 C8          1.4363   -1.2280   -2.7804 C.3       1 <0>         0.0607
     12 C9          2.0996   -0.0766   -3.5387 C.3       1 <0>        -0.1519
     13 C10        -2.2019   -3.4779    0.4112 C.3       1 <0>        -0.0975
     14 C11        -4.4872   -1.6046    1.5980 C.2       1 <0>         0.4247
     15 O3         -4.3054   -1.6635    2.7961 O.2       1 <0>        -0.4261
     16 C12        -5.8307   -1.9695    1.0210 C.3       1 <0>         0.0682
     17 N2         -6.7722   -2.2418    2.1098 N.am      1 <0>        -0.5748
     18 C13        -7.5809   -1.1551    2.6679 C.3       1 <0>         0.0594
     19 C14        -7.4597    0.2230    2.0145 C.3       1 <0>        -0.1902
     20 C15        -6.8444   -0.0269    3.3928 C.3       1 <0>        -0.1936
     21 C16        -6.8944   -3.4920    2.5981 C.2       1 <0>         0.5351
     22 O4         -6.1565   -4.3710    2.2060 O.2       1 <0>        -0.5280
     23 C17        -7.9480   -3.7978    3.6314 C.3       1 <0>        -0.0640
     24 C18        -7.7891   -2.8462    4.8189 C.3       1 <0>        -0.1204
     25 C19        -8.8587   -3.1566    5.8679 C.3       1 <0>        -0.0839
     26 C20        -8.6994   -4.6009    6.3469 C.3       1 <0>        -0.1105
     27 C21        -8.8583   -5.5525    5.1594 C.3       1 <0>        -0.0863
     28 C22        -7.7886   -5.2421    4.1104 C.3       1 <0>        -0.0873
     29 C23       -10.2462   -5.3702    4.5419 C.3       1 <0>        -0.1098
     30 C24       -10.4056   -3.9259    4.0629 C.3       1 <0>        -0.0836
     31 C25       -10.2467   -2.9742    5.2504 C.3       1 <0>        -0.1097
     32 C26        -9.3360   -3.6155    3.0139 C.3       1 <0>        -0.1071
     33 C27        -4.0168    1.3176    0.5469 C.3       1 <0>        -0.0996
     34 H1         -1.7248    2.2328   -3.1352 H         1 <0>         0.0798
     35 H2         -1.9460    0.4677   -3.1964 H         1 <0>         0.0658
     36 H3         -3.2258    1.5020   -2.5177 H         1 <0>         0.0620
     37 H4         -0.4388    1.1118   -1.3358 H         1 <0>         0.1096
     38 H5         -1.7186    2.1462   -0.6571 H         1 <0>         0.0949
     39 H6          2.1476   -1.6551   -2.0736 H         1 <0>         0.0695
     40 H7          1.1216   -1.9953   -3.4878 H         1 <0>         0.0698
     41 H8          2.9690   -0.4507   -4.0794 H         1 <0>         0.0817
     42 H9          1.3883    0.3506   -4.2456 H         1 <0>         0.0665
     43 H10         2.4142    0.6908   -2.8314 H         1 <0>         0.0660
     44 H11        -2.6726   -4.0327   -0.4005 H         1 <0>         0.0770
     45 H12        -1.1388   -3.7160    0.4455 H         1 <0>         0.0833
     46 H13        -2.6669   -3.7541    1.3575 H         1 <0>         0.0681
     47 H14        -6.2034   -1.1423    0.4168 H         1 <0>         0.1132
     48 H15        -5.7293   -2.8579    0.3976 H         1 <0>         0.1205
     49 H16        -8.5586   -1.4462    3.0519 H         1 <0>         0.1498
     50 H17        -6.7783    0.3212    1.1694 H         1 <0>         0.0979
     51 H18        -8.3579    0.8389    1.9685 H         1 <0>         0.1087
     52 H19        -7.3377    0.4246    4.2536 H         1 <0>         0.1043
     53 H20        -5.7582   -0.0932    3.4546 H         1 <0>         0.1068
     54 H21        -6.8003   -2.9760    5.2587 H         1 <0>         0.0675
     55 H22        -7.9026   -1.8172    4.4776 H         1 <0>         0.0879
     56 H23        -8.7455   -2.4786    6.7138 H         1 <0>         0.0736
     57 H24        -7.7106   -4.7308    6.7867 H         1 <0>         0.0627
     58 H25        -9.4614   -4.8220    7.0942 H         1 <0>         0.0634
     59 H26        -8.7447   -6.5814    5.5006 H         1 <0>         0.0737
     60 H27        -7.9018   -5.9200    3.2644 H         1 <0>         0.0696
     61 H28        -6.7998   -5.3720    4.5503 H         1 <0>         0.0679
     62 H29       -10.3594   -6.0481    3.6959 H         1 <0>         0.0630
     63 H30       -11.0083   -5.5913    5.2893 H         1 <0>         0.0643
     64 H31       -11.3944   -3.7960    3.6230 H         1 <0>         0.0745
     65 H32       -11.0087   -3.1954    5.9977 H         1 <0>         0.0654
     66 H33       -10.3602   -1.9453    4.9092 H         1 <0>         0.0616
     67 H34        -9.4495   -2.5865    2.6727 H         1 <0>         0.0725
     68 H35        -9.4492   -4.2934    2.1679 H         1 <0>         0.0688
     69 H36        -4.8077    1.4107   -0.1973 H         1 <0>         0.0862
     70 H37        -4.4601    1.2099    1.5368 H         1 <0>         0.0861
     71 H38        -3.3901    2.2092    0.5245 H         1 <0>         0.0780
@<TRIPOS>BOND
     1    1    2 1
     2    1   34 1
     3    1   35 1
     4    1   36 1
     5    2    3 1
     6    2   37 1
     7    2   38 1
     8    3    7 1
     9    3    4 1
    10    4    5 2
    11    4   33 1
    12    5    6 1
    13    5   14 1
    14    6    7 2
    15    6   13 1
    16    7    8 1
    17    8    9 2
    18    8   10 1
    19   10   11 1
    20   11   12 1
    21   11   39 1
    22   11   40 1
    23   12   41 1
    24   12   42 1
    25   12   43 1
    26   13   44 1
    27   13   45 1
    28   13   46 1
    29   14   15 2
    30   14   16 1
    31   16   17 1
    32   16   47 1
    33   16   48 1
    34   17   18 1
    35   17   21 am
    36   18   20 1
    37   18   19 1
    38   18   49 1
    39   19   20 1
    40   19   50 1
    41   19   51 1
    42   20   52 1
    43   20   53 1
    44   21   22 2
    45   21   23 1
    46   23   28 1
    47   23   32 1
    48   23   24 1
    49   24   25 1
    50   24   54 1
    51   24   55 1
    52   25   31 1
    53   25   26 1
    54   25   56 1
    55   26   27 1
    56   26   57 1
    57   26   58 1
    58   27   28 1
    59   27   29 1
    60   27   59 1
    61   28   60 1
    62   28   61 1
    63   29   30 1
    64   29   62 1
    65   29   63 1
    66   30   31 1
    67   30   32 1
    68   30   64 1
    69   31   65 1
    70   31   66 1
    71   32   67 1
    72   32   68 1
    73   33   69 1
    74   33   70 1
    75   33   71 1
@<TRIPOS>MOLECULE
ZINC04588150
   56    57     0     0     0
SMALL
USER_CHARGES
N-[[3-chloro-4-[3-(2,5-dimethylphenoxy)propoxy]-5-ethoxy-phenyl]methyleneamino]acetamide
@<TRIPOS>ATOM
      1 C1          4.9612    9.1773    4.8011 C.3       1 <0>        -0.1532
      2 C2          5.0098   10.1158    3.5937 C.3       1 <0>         0.0500
      3 O1          4.9492    9.3475    2.3904 O.3       1 <0>        -0.2981
      4 C3          4.9820   10.0342    1.2170 C.ar      1 <0>         0.1275
      5 C4          5.0709   11.4139    1.2261 C.ar      1 <0>        -0.1691
      6 C5          5.1049   12.1168    0.0191 C.ar      1 <0>        -0.0050
      7 C6          5.0489   11.4220   -1.1919 C.ar      1 <0>        -0.0969
      8 C7          4.9655   10.0446   -1.1933 C.ar      1 <0>        -0.0216
      9 C8          4.9265    9.3475    0.0067 C.ar      1 <0>         0.0872
     10 O2          4.8395    7.9907    0.0002 O.3       1 <0>        -0.3091
     11 C9          3.5274    7.4247    0.0092 C.3       1 <0>         0.0719
     12 C10         3.6304    5.8982    0.0000 C.3       1 <0>        -0.1167
     13 C11         2.2256    5.2921    0.0097 C.3       1 <0>         0.0650
     14 O3          2.3218    3.8664    0.0011 O.3       1 <0>        -0.3082
     15 C12         1.1553    3.1692    0.0080 C.ar      1 <0>         0.1326
     16 C13        -0.0572    3.8436    0.0232 C.ar      1 <0>        -0.2069
     17 C14        -1.2415    3.1328    0.0307 C.ar      1 <0>        -0.0530
     18 C15        -1.2194    1.7501    0.0173 C.ar      1 <0>        -0.1545
     19 C16        -0.0126    1.0758    0.0080 C.ar      1 <0>        -0.0796
     20 C17         1.1748    1.7823    0.0004 C.ar      1 <0>        -0.1220
     21 C18         2.4899    1.0466   -0.0166 C.3       1 <0>        -0.1057
     22 C19        -2.5587    3.8646    0.0467 C.3       1 <0>        -0.1168
     23 Cl1         4.9026    9.1822   -2.6986 Cl        1 <0>        -0.0372
     24 C20         5.2002   13.5879    0.0232 C.2       1 <0>         0.1041
     25 N1          5.2317   14.2393   -1.0990 N.2       1 <0>        -0.2185
     26 N2          5.3222   15.6374   -1.0951 N.am      1 <0>        -0.5838
     27 C21         5.3549   16.3138   -2.2603 C.2       1 <0>         0.5269
     28 O4          5.3059   15.7120   -3.3126 O.2       1 <0>        -0.5045
     29 C22         5.4523   17.8176   -2.2562 C.3       1 <0>        -0.1645
     30 H1          4.0326    8.6068    4.7807 H         1 <0>         0.0672
     31 H2          5.8088    8.4930    4.7638 H         1 <0>         0.0691
     32 H3          5.0074    9.7633    5.7189 H         1 <0>         0.0809
     33 H4          5.9384   10.6862    3.6141 H         1 <0>         0.0661
     34 H5          4.1622   10.8000    3.6310 H         1 <0>         0.0647
     35 H6          5.1136   11.9472    2.1642 H         1 <0>         0.1454
     36 H7          5.0750   11.9625   -2.1265 H         1 <0>         0.1534
     37 H8          2.9822    7.7573   -0.8741 H         1 <0>         0.0584
     38 H9          2.9985    7.7478    0.9058 H         1 <0>         0.0596
     39 H10         4.1757    5.5655    0.8833 H         1 <0>         0.0870
     40 H11         4.1594    5.5751   -0.8966 H         1 <0>         0.0867
     41 H12         1.6804    5.6248   -0.8736 H         1 <0>         0.0648
     42 H13         1.6967    5.6152    0.9063 H         1 <0>         0.0645
     43 H14        -0.0750    4.9235    0.0289 H         1 <0>         0.1265
     44 H15        -2.1465    1.1961    0.0184 H         1 <0>         0.1235
     45 H16         0.0021   -0.0041    0.0020 H         1 <0>         0.1293
     46 H17         2.7970    0.8751   -1.0483 H         1 <0>         0.0677
     47 H18         3.2465    1.6431    0.4933 H         1 <0>         0.0699
     48 H19         2.3775    0.0896    0.4929 H         1 <0>         0.0645
     49 H20        -2.8860    4.0462   -0.9770 H         1 <0>         0.0726
     50 H21        -3.3037    3.2604    0.5645 H         1 <0>         0.0690
     51 H22        -2.4393    4.8164    0.5643 H         1 <0>         0.0656
     52 H23         5.2438   14.1236    0.9599 H         1 <0>         0.1269
     53 H24         5.3613   16.1185   -0.2537 H         1 <0>         0.3892
     54 H25         5.4853   18.1767   -1.2275 H         1 <0>         0.0792
     55 H26         6.3590   18.1245   -2.7774 H         1 <0>         0.1040
     56 H27         4.5829   18.2394   -2.7605 H         1 <0>         0.1039
@<TRIPOS>BOND
     1    1    2 1
     2    1   30 1
     3    1   31 1
     4    1   32 1
     5    2    3 1
     6    2   33 1
     7    2   34 1
     8    3    4 1
     9    4    9 ar
    10    4    5 ar
    11    5    6 ar
    12    5   35 1
    13    6    7 ar
    14    6   24 1
    15    7    8 ar
    16    7   36 1
    17    8    9 ar
    18    8   23 1
    19    9   10 1
    20   10   11 1
    21   11   12 1
    22   11   37 1
    23   11   38 1
    24   12   13 1
    25   12   39 1
    26   12   40 1
    27   13   14 1
    28   13   41 1
    29   13   42 1
    30   14   15 1
    31   15   20 ar
    32   15   16 ar
    33   16   17 ar
    34   16   43 1
    35   17   18 ar
    36   17   22 1
    37   18   19 ar
    38   18   44 1
    39   19   20 ar
    40   19   45 1
    41   20   21 1
    42   21   46 1
    43   21   47 1
    44   21   48 1
    45   22   49 1
    46   22   50 1
    47   22   51 1
    48   24   25 2
    49   24   52 1
    50   25   26 1
    51   26   27 am
    52   26   53 1
    53   27   28 2
    54   27   29 1
    55   29   54 1
    56   29   55 1
    57   29   56 1
@<TRIPOS>MOLECULE
ZINC14007014
   52    53     0     0     0
SMALL
USER_CHARGES
(2S)-2-(4-chlorophenoxy)-N-[4-(diallylsulfamoyl)phenyl]propanamide
@<TRIPOS>ATOM
      1 C1          1.3743    2.9703    0.5801 C.3       1 <0>        -0.1809
      2 C2          0.1204    3.8468    0.5958 C.3       1 <0>         0.0697
      3 H1         -0.0646    4.2344   -0.4060 H         1 <0>         0.1070
      4 C3         -1.0613    3.0251    1.0426 C.2       1 <0>         0.5194
      5 O1         -1.6785    3.3415    2.0376 O.2       1 <0>        -0.4834
      6 N1         -1.4289    1.9356    0.3396 N.am      1 <0>        -0.6729
      7 C4         -2.4627    1.1170    0.8075 C.ar      1 <0>         0.2011
      8 C5         -2.3927   -0.2592    0.6353 C.ar      1 <0>        -0.1614
      9 C6         -3.4117   -1.0651    1.1043 C.ar      1 <0>         0.0000
     10 C7         -4.5068   -0.5018    1.7333 C.ar      1 <0>        -0.6901
     11 C8         -4.5824    0.8688    1.9009 C.ar      1 <0>         0.0000
     12 C9         -3.5636    1.6795    1.4401 C.ar      1 <0>        -0.1399
     13 S1         -5.8083   -1.5326    2.3232 S.o2      1 <0>         2.6878
     14 O2         -5.2443   -2.8202    2.5307 O.2       1 <0>        -0.9504
     15 O3         -6.4606   -0.8107    3.3589 O.2       1 <0>        -0.9516
     16 N2         -6.9050   -1.6891    1.0923 N.pl3     1 <0>        -0.9877
     17 C10        -6.7706   -2.7820    0.1260 C.3       1 <0>         0.1510
     18 C11        -7.6301   -3.9424    0.5571 C.2       1 <0>        -0.1766
     19 C12        -8.5201   -4.4395   -0.2656 C.2       1 <0>        -0.1732
     20 C13        -8.0097   -0.7347    0.9697 C.3       1 <0>         0.1394
     21 C14        -7.6249    0.3579    0.0057 C.2       1 <0>        -0.1843
     22 C15        -8.3878    0.6191   -1.0267 C.2       1 <0>        -0.1684
     23 O4          0.3121    4.9364    1.5003 O.3       1 <0>        -0.2808
     24 C16         0.9571    6.0317    1.0190 C.ar      1 <0>         0.1333
     25 C17         1.0737    7.1697    1.8036 C.ar      1 <0>        -0.1328
     26 C18         1.7338    8.2803    1.3144 C.ar      1 <0>        -0.0674
     27 C19         2.2693    8.2617    0.0388 C.ar      1 <0>        -0.0709
     28 C20         2.1495    7.1294   -0.7474 C.ar      1 <0>        -0.0679
     29 C21         1.4947    6.0150   -0.2597 C.ar      1 <0>        -0.2012
     30 Cl1         3.0931    9.6607   -0.5760 Cl        1 <0>        -0.0663
     31 H2          1.5592    2.5826    1.5819 H         1 <0>         0.0799
     32 H3          1.2280    2.1392   -0.1098 H         1 <0>         0.0813
     33 H4          2.2290    3.5646    0.2570 H         1 <0>         0.0833
     34 H5         -0.9767    1.7189   -0.4908 H         1 <0>         0.4164
     35 H6         -1.5402   -0.6993    0.1395 H         1 <0>         0.1386
     36 H7         -3.3553   -2.1359    0.9756 H         1 <0>         0.1454
     37 H8         -5.4388    1.3057    2.3929 H         1 <0>         0.1448
     38 H9         -3.6229    2.7498    1.5718 H         1 <0>         0.1471
     39 H10        -7.0906   -2.4386   -0.8578 H         1 <0>         0.0870
     40 H11        -5.7288   -3.0993    0.0789 H         1 <0>         0.0905
     41 H12        -7.5123   -4.3641    1.5444 H         1 <0>         0.1154
     42 H13        -8.6378   -4.0178   -1.2529 H         1 <0>         0.0983
     43 H14        -9.1360   -5.2711    0.0434 H         1 <0>         0.1015
     44 H15        -8.8959   -1.2503    0.5996 H         1 <0>         0.0919
     45 H16        -8.2237   -0.2993    1.9458 H         1 <0>         0.1042
     46 H17        -6.7202    0.9255    0.1661 H         1 <0>         0.1101
     47 H18        -8.1120    1.4022   -1.7175 H         1 <0>         0.0999
     48 H19        -9.2925    0.0515   -1.1870 H         1 <0>         0.1002
     49 H20         0.6522    7.1860    2.7979 H         1 <0>         0.1440
     50 H21         1.8283    9.1650    1.9266 H         1 <0>         0.1434
     51 H22         2.5685    7.1167   -1.7427 H         1 <0>         0.1383
     52 H23         1.4017    5.1313   -0.8735 H         1 <0>         0.1384
@<TRIPOS>BOND
     1    1    2 1
     2    1   31 1
     3    1   32 1
     4    1   33 1
     5    2    3 1
     6    2    4 1
     7    2   23 1
     8    4    5 2
     9    4    6 am
    10    6    7 1
    11    6   34 1
    12    7   12 ar
    13    7    8 ar
    14    8    9 ar
    15    8   35 1
    16    9   10 ar
    17    9   36 1
    18   10   11 ar
    19   10   13 1
    20   11   12 ar
    21   11   37 1
    22   12   38 1
    23   13   14 2
    24   13   15 2
    25   13   16 1
    26   16   17 1
    27   16   20 1
    28   17   18 1
    29   17   39 1
    30   17   40 1
    31   18   19 2
    32   18   41 1
    33   19   42 1
    34   19   43 1
    35   20   21 1
    36   20   44 1
    37   20   45 1
    38   21   22 2
    39   21   46 1
    40   22   47 1
    41   22   48 1
    42   23   24 1
    43   24   29 ar
    44   24   25 ar
    45   25   26 ar
    46   25   49 1
    47   26   27 ar
    48   26   50 1
    49   27   28 ar
    50   27   30 1
    51   28   29 ar
    52   28   51 1
    53   29   52 1
@<TRIPOS>MOLECULE
ZINC21173528
   54    55     0     0     0
SMALL
USER_CHARGES
[2-[[2-(o-tolylamino)-2-oxo-ethyl]-propyl-amino]-2-oxo-ethyl] 3-(trifluoromethyl)benzoate
@<TRIPOS>ATOM
      1 C1          3.5937    5.2226    9.4742 C.3       1 <0>        -0.1546
      2 C2          2.0878    5.3866    9.2588 C.3       1 <0>        -0.1451
      3 C3          1.3773    4.0767    9.6054 C.3       1 <0>         0.1020
      4 N1         -0.0645    4.2338    9.3992 N.am      1 <0>        -0.5920
      5 C4         -0.9150    4.7003   10.4971 C.3       1 <0>         0.0980
      6 C5         -1.4120    3.5161   11.2856 C.2       1 <0>         0.4974
      7 O1         -1.0877    2.3930   10.9623 O.2       1 <0>        -0.5100
      8 N2         -2.2167    3.7051   12.3501 N.am      1 <0>        -0.6801
      9 C6         -2.7714    2.6041   13.0120 C.ar      1 <0>         0.1527
     10 C7         -2.9458    1.4023   12.3380 C.ar      1 <0>        -0.1299
     11 C8         -3.4890    0.3162   12.9955 C.ar      1 <0>        -0.1039
     12 C9         -3.8686    0.4272   14.3208 C.ar      1 <0>        -0.1361
     13 C10        -3.7011    1.6238   14.9930 C.ar      1 <0>        -0.1003
     14 C11        -3.1539    2.7125   14.3424 C.ar      1 <0>        -0.1199
     15 C12        -2.9727    4.0166   15.0756 C.3       1 <0>        -0.1153
     16 C13        -0.6087    3.9491    8.1995 C.2       1 <0>         0.5273
     17 O2         -1.8023    4.0791    8.0288 O.2       1 <0>        -0.5105
     18 C14         0.2661    3.4692    7.0701 C.3       1 <0>         0.0497
     19 O3         -0.5499    3.2329    5.8926 O.3       1 <0>        -0.3267
     20 C15         0.0839    2.7970    4.7867 C.2       1 <0>         0.5143
     21 O4          1.2854    2.6192    4.8055 O.2       1 <0>        -0.4956
     22 C16        -0.6822    2.5352    3.5510 C.ar      1 <0>        -0.1267
     23 C17        -2.0635    2.7390    3.5258 C.ar      1 <0>        -0.0269
     24 C18        -2.7726    2.4931    2.3686 C.ar      1 <0>        -0.1296
     25 C19        -2.1175    2.0504    1.2328 C.ar      1 <0>        -0.0328
     26 C20        -0.7501    1.8414    1.2524 C.ar      1 <0>        -0.1957
     27 C21        -0.0285    2.0834    2.4032 C.ar      1 <0>        -0.0054
     28 C22        -0.0462    1.3541    0.0122 C.3       1 <0>         0.5118
     29 F1         -0.0190   -0.0446    0.0105 F         1 <0>        -0.1727
     30 F2          1.2634    1.8460   -0.0044 F         1 <0>        -0.1734
     31 F3         -0.7295    1.8087   -1.1208 F         1 <0>        -0.1737
     32 H1          4.1044    6.1644    9.2250 H         1 <0>         0.0622
     33 H2          3.9713    4.4180    8.8260 H         1 <0>         0.0598
     34 H3          3.7879    4.9674   10.5264 H         1 <0>         0.0589
     35 H4          1.7102    6.1912    9.9070 H         1 <0>         0.0706
     36 H5          1.8935    5.6418    8.2066 H         1 <0>         0.0664
     37 H6          1.7549    3.2721    8.9572 H         1 <0>         0.0857
     38 H7          1.5716    3.8215   10.6576 H         1 <0>         0.0886
     39 H8         -0.3332    5.3615   11.1561 H         1 <0>         0.1168
     40 H9         -1.7726    5.2537   10.0869 H         1 <0>         0.1228
     41 H10        -2.4374    4.7248   12.6986 H         1 <0>         0.4335
     42 H11        -2.6537    1.3163   11.3018 H         1 <0>         0.1425
     43 H12        -3.6218   -0.6196   12.4730 H         1 <0>         0.1238
     44 H13        -4.2970   -0.4224   14.8316 H         1 <0>         0.1226
     45 H14        -3.9988    1.7074   16.0278 H         1 <0>         0.1251
     46 H15        -3.3307    3.9084   16.1101 H         1 <0>         0.0716
     47 H16        -3.5484    4.8052   14.5689 H         1 <0>         0.0674
     48 H17        -1.9067    4.2880   15.0830 H         1 <0>         0.0680
     49 H18         1.0243    4.2333    6.8435 H         1 <0>         0.1083
     50 H19         0.7647    2.5339    7.3644 H         1 <0>         0.1091
     51 H20        -2.5753    3.0887    4.4102 H         1 <0>         0.1529
     52 H21        -3.8409    2.6503    2.3477 H         1 <0>         0.1485
     53 H22        -2.6770    1.8633    0.3281 H         1 <0>         0.1461
     54 H23         1.0395    1.9234    2.4161 H         1 <0>         0.1528
@<TRIPOS>BOND
     1    1    2 1
     2    1   32 1
     3    1   33 1
     4    1   34 1
     5    2    3 1
     6    2   35 1
     7    2   36 1
     8    3    4 1
     9    3   37 1
    10    3   38 1
    11    4    5 1
    12    4   16 am
    13    5    6 1
    14    5   39 1
    15    5   40 1
    16    6    7 2
    17    6    8 am
    18    8    9 1
    19    8   41 1
    20    9   14 ar
    21    9   10 ar
    22   10   11 ar
    23   10   42 1
    24   11   12 ar
    25   11   43 1
    26   12   13 ar
    27   12   44 1
    28   13   14 ar
    29   13   45 1
    30   14   15 1
    31   15   46 1
    32   15   47 1
    33   15   48 1
    34   16   17 2
    35   16   18 1
    36   18   19 1
    37   18   49 1
    38   18   50 1
    39   19   20 1
    40   20   21 2
    41   20   22 1
    42   22   27 ar
    43   22   23 ar
    44   23   24 ar
    45   23   51 1
    46   24   25 ar
    47   24   52 1
    48   25   26 ar
    49   25   53 1
    50   26   27 ar
    51   26   28 1
    52   27   54 1
    53   28   29 1
    54   28   30 1
    55   28   31 1
@<TRIPOS>MOLECULE
ZINC33731144
   61    63     0     0     0
SMALL
USER_CHARGES
2-[allyl(benzylcarbamoyl)amino]-N-(2-furylmethyl)-N-phenethyl-acetamide
@<TRIPOS>ATOM
      1 C1          5.0668    3.9495    2.6664 C.2       1 <0>        -0.1859
      2 C2          4.1547    3.0179    2.7939 C.2       1 <0>        -0.1688
      3 C3          4.0695    2.2161    4.0670 C.3       1 <0>         0.1382
      4 N1          2.7136    2.3103    4.6136 N.am      1 <0>        -0.6077
      5 C4          1.6954    1.3336    4.2194 C.3       1 <0>         0.1064
      6 C5          0.9665    1.8328    2.9985 C.2       1 <0>         0.5021
      7 O1          1.2679    2.8994    2.5062 O.2       1 <0>        -0.5115
      8 N2         -0.0203    1.0939    2.4537 N.am      1 <0>        -0.6091
      9 C6         -0.7288    1.5792    1.2668 C.3       1 <0>         0.1209
     10 C7         -0.0127    1.0858    0.0080 C.3       1 <0>        -0.0947
     11 C8         -0.7416    1.5850   -1.2129 C.ar      1 <0>        -0.0804
     12 C9         -1.7499    0.8246   -1.7750 C.ar      1 <0>        -0.1157
     13 C10        -2.4217    1.2848   -2.8921 C.ar      1 <0>        -0.1188
     14 C11        -2.0785    2.5007   -3.4529 C.ar      1 <0>        -0.1232
     15 C12        -1.0663    3.2585   -2.8942 C.ar      1 <0>        -0.1180
     16 C13        -0.3980    2.8008   -1.7740 C.ar      1 <0>        -0.1133
     17 C14        -0.3844   -0.1945    3.0484 C.3       1 <0>         0.1821
     18 C15         0.4391   -1.2887    2.4194 C.2       1 <0>        -0.0361
     19 C16         1.6349   -1.7232    2.8560 C.2       1 <0>        -0.1977
     20 C17         2.0434   -2.7516    1.9760 C.2       1 <0>        -0.2131
     21 C18         1.0727   -2.8840    1.0542 C.2       1 <0>        -0.0312
     22 O2          0.1009   -1.9994    1.3311 O.3       1 <0>        -0.1693
     23 C19         2.4029    3.2955    5.4792 C.2       1 <0>         0.7172
     24 O3          1.2776    3.3737    5.9329 O.2       1 <0>        -0.5889
     25 N3          3.3397    4.1941    5.8420 N.am      1 <0>        -0.7472
     26 C20         3.0020    5.2650    6.7829 C.3       1 <0>         0.1811
     27 C21         4.2155    6.1264    7.0202 C.ar      1 <0>        -0.1083
     28 C22         5.0891    5.8219    8.0474 C.ar      1 <0>        -0.1007
     29 C23         6.2049    6.6092    8.2620 C.ar      1 <0>        -0.1224
     30 C24         6.4417    7.7068    7.4558 C.ar      1 <0>        -0.1114
     31 C25         5.5652    8.0146    6.4322 C.ar      1 <0>        -0.1215
     32 C26         4.4522    7.2243    6.2142 C.ar      1 <0>        -0.0982
     33 H1          5.1290    4.5348    1.7371 H         1 <0>         0.1018
     34 H2          5.7705    4.1465    3.4886 H         1 <0>         0.0956
     35 H3          3.4510    2.8209    1.9717 H         1 <0>         0.1230
     36 H4          4.3066    1.1633    3.8538 H         1 <0>         0.0907
     37 H5          4.7883    2.6128    4.7990 H         1 <0>         0.0810
     38 H6          2.1786    0.3723    3.9905 H         1 <0>         0.1094
     39 H7          0.9797    1.1971    5.0435 H         1 <0>         0.1175
     40 H8         -1.7608    1.1985    1.2746 H         1 <0>         0.0808
     41 H9         -0.7437    2.6791    1.2728 H         1 <0>         0.0890
     42 H10         1.0193    1.4666    0.0002 H         1 <0>         0.0729
     43 H11         0.0023   -0.0141    0.0019 H         1 <0>         0.0778
     44 H12        -2.0153   -0.1273   -1.3392 H         1 <0>         0.1208
     45 H13        -3.2122    0.6925   -3.3288 H         1 <0>         0.1216
     46 H14        -2.6009    2.8585   -4.3278 H         1 <0>         0.1211
     47 H15        -0.7979    4.2083   -3.3326 H         1 <0>         0.1215
     48 H16         0.3927    3.3928   -1.3375 H         1 <0>         0.1210
     49 H17        -0.1912   -0.1663    4.1309 H         1 <0>         0.1154
     50 H18        -1.4521   -0.3914    2.8715 H         1 <0>         0.1041
     51 H19         2.1789   -1.3564    3.7139 H         1 <0>         0.1475
     52 H20         2.9591   -3.3213    2.0328 H         1 <0>         0.1494
     53 H21         1.0725   -3.5863    0.2336 H         1 <0>         0.2031
     54 H22         4.3578    4.1234    5.4316 H         1 <0>         0.4141
     55 H23         2.1922    5.8799    6.3632 H         1 <0>         0.0736
     56 H24         2.6724    4.8254    7.7358 H         1 <0>         0.0740
     57 H25         4.9018    4.9667    8.6798 H         1 <0>         0.1236
     58 H26         6.8895    6.3690    9.0620 H         1 <0>         0.1241
     59 H27         7.3115    8.3241    7.6258 H         1 <0>         0.1232
     60 H28         5.7501    8.8724    5.8025 H         1 <0>         0.1241
     61 H29         3.7673    7.4647    5.4145 H         1 <0>         0.1237
@<TRIPOS>BOND
     1    1    2 2
     2    1   33 1
     3    1   34 1
     4    2    3 1
     5    2   35 1
     6    3    4 1
     7    3   36 1
     8    3   37 1
     9    4    5 1
    10    4   23 am
    11    5    6 1
    12    5   38 1
    13    5   39 1
    14    6    7 2
    15    6    8 am
    16    8    9 1
    17    8   17 1
    18    9   10 1
    19    9   40 1
    20    9   41 1
    21   10   11 1
    22   10   42 1
    23   10   43 1
    24   11   16 ar
    25   11   12 ar
    26   12   13 ar
    27   12   44 1
    28   13   14 ar
    29   13   45 1
    30   14   15 ar
    31   14   46 1
    32   15   16 ar
    33   15   47 1
    34   16   48 1
    35   17   18 1
    36   17   49 1
    37   17   50 1
    38   18   22 1
    39   18   19 2
    40   19   20 1
    41   19   51 1
    42   20   21 2
    43   20   52 1
    44   21   22 1
    45   21   53 1
    46   23   24 2
    47   23   25 am
    48   25   26 1
    49   25   54 1
    50   26   27 1
    51   26   55 1
    52   26   56 1
    53   27   32 ar
    54   27   28 ar
    55   28   29 ar
    56   28   57 1
    57   29   30 ar
    58   29   58 1
    59   30   31 ar
    60   30   59 1
    61   31   32 ar
    62   31   60 1
    63   32   61 1
@<TRIPOS>MOLECULE
ZINC40367994
   51    52     0     0     0
SMALL
USER_CHARGES

@<TRIPOS>ATOM
      1 C1         -0.0017    1.5479   -0.0348 C.3       1 <0>        -0.1550
      2 C2          0.0133    0.0180   -0.0334 C.3       1 <0>        -0.1245
      3 C3          0.7311   -0.4862   -1.2870 C.3       1 <0>        -0.1193
      4 C4          0.7460   -2.0161   -1.2855 C.3       1 <0>        -0.1413
      5 C5          1.4638   -2.5203   -2.5391 C.3       1 <0>         0.1016
      6 N1          1.4781   -3.9853   -2.5377 N.am      1 <0>        -0.6196
      7 C6          0.3824   -4.7291   -3.1639 C.3       1 <0>         0.2242
      8 C7          0.7088   -4.9785   -4.6139 C.2       1 <0>        -0.0214
      9 N2          1.3336   -5.9991   -5.1341 N.2       1 <0>        -0.4222
     10 C8          1.5201   -6.0223   -6.4580 C.2       1 <0>         0.0048
     11 C9          1.0269   -4.9501   -7.1538 C.2       1 <0>        -0.2215
     12 S1          0.3469   -4.0116   -5.9376 S.3       1 <0>         0.2797
     13 C10         2.2143   -7.1331   -7.1277 C.2       1 <0>         0.5433
     14 O1          2.3640   -7.1172   -8.3339 O.2       1 <0>        -0.5006
     15 O2          2.6843   -8.1685   -6.4037 O.3       1 <0>        -0.3275
     16 C11         3.3480   -9.2122   -7.1194 C.3       1 <0>         0.0320
     17 C12         2.4994   -4.6487   -1.9602 C.2       1 <0>         0.7062
     18 O3          2.5113   -5.8645   -1.9591 O.2       1 <0>        -0.5446
     19 N3          3.5075   -3.9643   -1.3841 N.am      1 <0>        -0.6840
     20 C13         4.5182   -4.6502   -0.7011 C.ar      1 <0>         0.1620
     21 C14         5.0912   -4.0940    0.4352 C.ar      1 <0>        -0.1144
     22 C15         6.0881   -4.7735    1.1073 C.ar      1 <0>        -0.0997
     23 C16         6.5162   -6.0064    0.6496 C.ar      1 <0>        -0.0890
     24 C17         5.9480   -6.5626   -0.4815 C.ar      1 <0>        -0.1636
     25 C18         4.9462   -5.8907   -1.1547 C.ar      1 <0>        -0.0700
     26 C19         6.4182   -7.9058   -0.9773 C.3       1 <0>         0.5088
     27 F1          7.4266   -8.3868   -0.1353 F         1 <0>        -0.1773
     28 F2          5.3452   -8.8035   -0.9800 F         1 <0>        -0.1717
     29 F3          6.9192   -7.7739   -2.2768 F         1 <0>        -0.1762
     30 H1          1.0223    1.9213   -0.0421 H         1 <0>         0.0539
     31 H2         -0.5250    1.9053   -0.9217 H         1 <0>         0.0545
     32 H3         -0.5131    1.9071    0.8582 H         1 <0>         0.0546
     33 H4          0.5366   -0.3394    0.8535 H         1 <0>         0.0613
     34 H5         -1.0108   -0.3554   -0.0261 H         1 <0>         0.0624
     35 H6          0.2077   -0.1288   -2.1738 H         1 <0>         0.0668
     36 H7          1.7551   -0.1129   -1.2942 H         1 <0>         0.0642
     37 H8          1.2693   -2.3735   -0.3986 H         1 <0>         0.0683
     38 H9         -0.2780   -2.3895   -1.2782 H         1 <0>         0.0735
     39 H10         0.9405   -2.1630   -3.4259 H         1 <0>         0.0877
     40 H11         2.4879   -2.1470   -2.5463 H         1 <0>         0.0769
     41 H12         0.2511   -5.6824   -2.6519 H         1 <0>         0.1238
     42 H13        -0.5377   -4.1489   -3.0932 H         1 <0>         0.1129
     43 H14         1.0623   -4.7588   -8.2161 H         1 <0>         0.2113
     44 H15         2.6611   -9.6495   -7.8441 H         1 <0>         0.0623
     45 H16         4.2133   -8.8023   -7.6403 H         1 <0>         0.0620
     46 H17         3.6757   -9.9811   -6.4197 H         1 <0>         0.1063
     47 H18         3.5324   -2.9964   -1.4428 H         1 <0>         0.4091
     48 H19         4.7579   -3.1309    0.7927 H         1 <0>         0.1350
     49 H20         6.5341   -4.3415    1.9909 H         1 <0>         0.1404
     50 H21         7.2961   -6.5357    1.1767 H         1 <0>         0.1402
     51 H22         4.4997   -6.3277   -2.0356 H         1 <0>         0.1531
@<TRIPOS>BOND
     1    1    2 1
     2    1   30 1
     3    1   31 1
     4    1   32 1
     5    2    3 1
     6    2   33 1
     7    2   34 1
     8    3    4 1
     9    3   35 1
    10    3   36 1
    11    4    5 1
    12    4   37 1
    13    4   38 1
    14    5    6 1
    15    5   39 1
    16    5   40 1
    17    6    7 1
    18    6   17 am
    19    7    8 1
    20    7   41 1
    21    7   42 1
    22    8   12 1
    23    8    9 2
    24    9   10 1
    25   10   11 2
    26   10   13 1
    27   11   12 1
    28   11   43 1
    29   13   14 2
    30   13   15 1
    31   15   16 1
    32   16   44 1
    33   16   45 1
    34   16   46 1
    35   17   18 2
    36   17   19 am
    37   19   20 1
    38   19   47 1
    39   20   25 ar
    40   20   21 ar
    41   21   22 ar
    42   21   48 1
    43   22   23 ar
    44   22   49 1
    45   23   24 ar
    46   23   50 1
    47   24   25 ar
    48   24   26 1
    49   25   51 1
    50   26   27 1
    51   26   28 1
    52   26   29 1
@<TRIPOS>MOLECULE
ZINC02804108
   47    50     0     0     0
SMALL
USER_CHARGES
methyl [2-(4-bromo-3,5-dimethyl-pyrazol-1-yl)-1-methyl-ethyl]-methyl-BLAHcarboxylate
@<TRIPOS>ATOM
      1 C1          1.9457   -2.2471    3.2291 C.3       1 <0>        -0.1232
      2 C2          1.2549   -2.8699    2.0433 C.2       1 <0>         0.0233
      3 C3          1.2016   -4.2583    1.9150 C.2       1 <0>        -0.1345
      4 C4          1.7450   -5.3054    2.8072 C.2       1 <0>         0.3488
      5 N1          2.4137   -5.2702    3.9415 N.2       1 <0>        -0.5127
      6 C5          2.6706   -6.5117    4.3439 C.2       1 <0>         0.2753
      7 N2          2.1750   -7.3644    3.4805 N.2       1 <0>        -0.2972
      8 N3          1.5636   -6.6143    2.4651 N.pl3     1 <0>        -0.3466
      9 C6          0.8977   -6.9504    1.3282 C.2       1 <0>         0.4162
     10 N4          0.4101   -6.0437    0.5267 N.2       1 <0>        -0.4508
     11 C7          0.5330   -4.7461    0.7695 C.2       1 <0>         0.0814
     12 S1          0.0115   -3.2653   -0.0594 S.3       1 <0>         0.2602
     13 C8          0.6800   -2.0764    1.0918 C.2       1 <0>        -0.2244
     14 C9          0.6212   -0.6138    1.0338 C.2       1 <0>         0.5564
     15 O1          1.1306    0.0507    1.9159 O.2       1 <0>        -0.4798
     16 O2          0.0021   -0.0041    0.0020 O.3       1 <0>        -0.3519
     17 C10        -0.0176    1.4478    0.0100 C.3       1 <0>         0.0379
     18 C11         3.4170   -6.8813    5.5998 C.3       1 <0>        -0.0143
     19 H1          3.7132   -5.9742    6.1267 H         1 <0>         0.1113
     20 C12         2.5120   -7.7226    6.5021 C.3       1 <0>        -0.1428
     21 C13         4.6640   -7.6884    5.2332 C.3       1 <0>         0.1435
     22 N5          5.4520   -7.9454    6.4413 N.pl3     1 <0>        -0.3616
     23 C14         6.4353   -7.1599    6.9302 C.2       1 <0>         0.1291
     24 C15         6.9081   -7.7440    8.0561 C.2       1 <0>        -0.2433
     25 C16         6.1952   -8.9311    8.2569 C.2       1 <0>         0.1092
     26 N6          5.3224   -9.0525    7.2897 N.2       1 <0>        -0.2791
     27 C17         6.3979   -9.9024    9.3912 C.3       1 <0>        -0.0800
     28 Br1         8.2920   -7.0771    9.1587 Br        1 <0>        -0.0175
     29 C18         6.9180   -5.8640    6.3314 C.3       1 <0>        -0.1037
     30 H2          1.2277   -2.1114    4.0379 H         1 <0>         0.0857
     31 H3          2.7515   -2.9000    3.5643 H         1 <0>         0.0863
     32 H4          2.3575   -1.2794    2.9426 H         1 <0>         0.0951
     33 H5          0.7694   -7.9942    1.0823 H         1 <0>         0.2309
     34 H6          1.0050    1.8251    0.0023 H         1 <0>         0.0686
     35 H7         -0.5448    1.8089   -0.8731 H         1 <0>         0.1085
     36 H8         -0.5278    1.7993    0.9068 H         1 <0>         0.0686
     37 H9          2.2157   -8.6297    5.9752 H         1 <0>         0.0701
     38 H10         3.0518   -7.9899    7.4105 H         1 <0>         0.0781
     39 H11         1.6236   -7.1475    6.7632 H         1 <0>         0.0625
     40 H12         4.3648   -8.6364    4.7861 H         1 <0>         0.1107
     41 H13         5.2654   -7.1243    4.5204 H         1 <0>         0.0989
     42 H14         7.1394  -10.6476    9.1033 H         1 <0>         0.0832
     43 H15         6.7468   -9.3642   10.2725 H         1 <0>         0.0832
     44 H16         5.4540  -10.3980    9.6182 H         1 <0>         0.0788
     45 H17         6.3440   -5.0357    6.7469 H         1 <0>         0.0914
     46 H18         7.9740   -5.7272    6.5644 H         1 <0>         0.0937
     47 H19         6.7852   -5.8917    5.2499 H         1 <0>         0.0763
@<TRIPOS>BOND
     1    1    2 1
     2    1   30 1
     3    1   31 1
     4    1   32 1
     5    2   13 2
     6    2    3 1
     7    3   11 2
     8    3    4 1
     9    4    8 1
    10    4    5 2
    11    5    6 1
    12    6    7 2
    13    6   18 1
    14    7    8 1
    15    8    9 1
    16    9   10 2
    17    9   33 1
    18   10   11 1
    19   11   12 1
    20   12   13 1
    21   13   14 1
    22   14   15 2
    23   14   16 1
    24   16   17 1
    25   17   34 1
    26   17   35 1
    27   17   36 1
    28   18   19 1
    29   18   20 1
    30   18   21 1
    31   20   37 1
    32   20   38 1
    33   20   39 1
    34   21   22 1
    35   21   40 1
    36   21   41 1
    37   22   26 1
    38   22   23 1
    39   23   24 2
    40   23   29 1
    41   24   25 1
    42   24   28 1
    43   25   26 2
    44   25   27 1
    45   27   42 1
    46   27   43 1
    47   27   44 1
    48   29   45 1
    49   29   46 1
    50   29   47 1
@<TRIPOS>MOLECULE
ZINC00808574
   58    60     0     0     0
SMALL
USER_CHARGES
N-acetyl-N-[4-[4-[4-(diacetylamino)phenoxy]phenoxy]phenyl]acetamide
@<TRIPOS>ATOM
      1 C1          1.6638    2.4081    0.5335 C.3       1 <0>        -0.1803
      2 C2          0.3878    2.9101   -0.0916 C.2       1 <0>         0.5220
      3 O1          0.1415    4.0971   -0.0968 O.2       1 <0>        -0.4909
      4 N1         -0.4796    2.0394   -0.6449 N.am      1 <0>        -0.5338
      5 C3         -0.2473    0.6590   -0.5459 C.ar      1 <0>         0.1109
      6 C4          0.0440   -0.0794   -1.6847 C.ar      1 <0>        -0.0770
      7 C5          0.2729   -1.4375   -1.5869 C.ar      1 <0>        -0.1255
      8 C6          0.2118   -2.0643   -0.3504 C.ar      1 <0>         0.0960
      9 C7         -0.0794   -1.3264    0.7881 C.ar      1 <0>        -0.1065
     10 C8         -0.3089    0.0316    0.6909 C.ar      1 <0>        -0.0936
     11 O2          0.4367   -3.4014   -0.2545 O.3       1 <0>        -0.2500
     12 C9          1.6921   -3.8573   -0.5085 C.ar      1 <0>         0.1256
     13 C10         2.7211   -2.9583   -0.7489 C.ar      1 <0>        -0.1804
     14 C11         3.9973   -3.4213   -1.0025 C.ar      1 <0>        -0.0788
     15 C12         4.2484   -4.7855   -1.0260 C.ar      1 <0>         0.0487
     16 C13         3.2183   -5.6846   -0.7908 C.ar      1 <0>        -0.0916
     17 C14         1.9430   -5.2215   -0.5329 C.ar      1 <0>        -0.1270
     18 O3          5.5040   -5.2414   -1.2790 O.3       1 <0>        -0.2494
     19 C15         5.7592   -5.7587   -2.5098 C.ar      1 <0>         0.1336
     20 C16         4.7851   -5.7130   -3.4970 C.ar      1 <0>        -0.1836
     21 C17         5.0459   -6.2333   -4.7490 C.ar      1 <0>        -0.0746
     22 C18         6.2790   -6.8121   -5.0169 C.ar      1 <0>         0.0717
     23 C19         7.2512   -6.8628   -4.0273 C.ar      1 <0>        -0.0519
     24 C20         6.9916   -6.3376   -2.7771 C.ar      1 <0>        -0.1319
     25 N2          6.5427   -7.3453   -6.2879 N.am      1 <0>        -0.5295
     26 C21         7.5581   -6.8558   -7.0267 C.2       1 <0>         0.5213
     27 O4          8.3766   -6.1194   -6.5194 O.2       1 <0>        -0.4925
     28 C22         7.6758   -7.2238   -8.4833 C.3       1 <0>        -0.2013
     29 C23         5.7806   -8.3471   -6.7697 C.2       1 <0>         0.5242
     30 O5          6.1028   -8.9169   -7.7902 O.2       1 <0>        -0.4886
     31 C24         4.5280   -8.7589   -6.0401 C.3       1 <0>        -0.1822
     32 C25        -1.5699    2.4946   -1.2933 C.2       1 <0>         0.5159
     33 O6         -2.3013    1.7176   -1.8687 O.2       1 <0>        -0.4909
     34 C26        -1.8800    3.9693   -1.3030 C.3       1 <0>        -0.1555
     35 H1          1.7549    1.3355    0.3621 H         1 <0>         0.0854
     36 H2          2.5145    2.9212    0.0850 H         1 <0>         0.1073
     37 H3          1.6450    2.6045    1.6055 H         1 <0>         0.1082
     38 H4          0.0960    0.4091   -2.6465 H         1 <0>         0.1364
     39 H5          0.4992   -2.0121   -2.4729 H         1 <0>         0.1412
     40 H6         -0.1269   -1.8146    1.7503 H         1 <0>         0.1458
     41 H7         -0.5355    0.6058    1.5771 H         1 <0>         0.1404
     42 H8          2.5249   -1.8964   -0.7342 H         1 <0>         0.1385
     43 H9          4.7993   -2.7214   -1.1852 H         1 <0>         0.1387
     44 H10         3.4138   -6.7466   -0.8091 H         1 <0>         0.1421
     45 H11         1.1411   -5.9214   -0.3498 H         1 <0>         0.1438
     46 H12         3.8244   -5.2663   -3.2873 H         1 <0>         0.1382
     47 H13         4.2894   -6.1934   -5.5188 H         1 <0>         0.1344
     48 H14         8.2105   -7.3133   -4.2353 H         1 <0>         0.1375
     49 H15         7.7480   -6.3770   -2.0072 H         1 <0>         0.1432
     50 H16         6.7970   -7.7929   -8.7865 H         1 <0>         0.1295
     51 H17         7.7456   -6.3162   -9.0829 H         1 <0>         0.0907
     52 H18         8.5701   -7.8285   -8.6341 H         1 <0>         0.1017
     53 H19         3.6723   -8.2301   -6.4601 H         1 <0>         0.1063
     54 H20         4.3804   -9.8333   -6.1494 H         1 <0>         0.1044
     55 H21         4.6251   -8.5111   -4.9831 H         1 <0>         0.0919
     56 H22        -1.0542    4.5112   -1.7640 H         1 <0>         0.1038
     57 H23        -2.7927    4.1449   -1.8724 H         1 <0>         0.0864
     58 H24        -2.0173    4.3184   -0.2796 H         1 <0>         0.1014
@<TRIPOS>BOND
     1    1    2 1
     2    1   35 1
     3    1   36 1
     4    1   37 1
     5    2    3 2
     6    2    4 am
     7    4    5 1
     8    4   32 am
     9    5   10 ar
    10    5    6 ar
    11    6    7 ar
    12    6   38 1
    13    7    8 ar
    14    7   39 1
    15    8    9 ar
    16    8   11 1
    17    9   10 ar
    18    9   40 1
    19   10   41 1
    20   11   12 1
    21   12   17 ar
    22   12   13 ar
    23   13   14 ar
    24   13   42 1
    25   14   15 ar
    26   14   43 1
    27   15   16 ar
    28   15   18 1
    29   16   17 ar
    30   16   44 1
    31   17   45 1
    32   18   19 1
    33   19   24 ar
    34   19   20 ar
    35   20   21 ar
    36   20   46 1
    37   21   22 ar
    38   21   47 1
    39   22   23 ar
    40   22   25 1
    41   23   24 ar
    42   23   48 1
    43   24   49 1
    44   25   26 am
    45   25   29 am
    46   26   27 2
    47   26   28 1
    48   28   50 1
    49   28   51 1
    50   28   52 1
    51   29   30 2
    52   29   31 1
    53   31   53 1
    54   31   54 1
    55   31   55 1
    56   32   33 2
    57   32   34 1
    58   34   56 1
    59   34   57 1
    60   34   58 1
@<TRIPOS>MOLECULE
ZINC22879251
   63    67     0     0     0
SMALL
USER_CHARGES
1-(3,5-dimethylphenyl)-5-[2-[2,5-dimethyl-1-[[(2S)-tetrahydrofuran-2-yl]methyl]pyrrol-3-yl]-2-oxo-ethyl]pyrazolo[4,5-e]pyrimidin-4-one
@<TRIPOS>ATOM
      1 C1          0.6711    6.4778   -1.4073 C.3       1 <0>        -0.1165
      2 C2          1.4505    5.4180   -0.6722 C.ar      1 <0>        -0.0628
      3 C3          2.6070    5.7569    0.0061 C.ar      1 <0>        -0.1189
      4 C4          3.3248    4.7874    0.6822 C.ar      1 <0>        -0.0657
      5 C5          2.8883    3.4771    0.6821 C.ar      1 <0>        -0.1136
      6 C6          1.7273    3.1336    0.0020 C.ar      1 <0>         0.1536
      7 C7          1.0116    4.1085   -0.6805 C.ar      1 <0>        -0.1160
      8 N1          1.2823    1.8055   -0.0005 N.pl3     1 <0>        -0.3039
      9 C8         -0.0170    1.3998    0.0097 C.2       1 <0>         0.3424
     10 C9          0.0021   -0.0041    0.0020 C.2       1 <0>        -0.3352
     11 C10         1.3516   -0.4038   -0.0130 C.2       1 <0>         0.1354
     12 N2          2.0977    0.6668   -0.0144 N.2       1 <0>        -0.2657
     13 C11        -1.2787   -0.7106    0.0109 C.2       1 <0>         0.5816
     14 O1         -1.3290   -1.9278    0.0052 O.2       1 <0>        -0.5116
     15 N3         -2.4059    0.0388    0.0260 N.am      1 <0>        -0.5319
     16 C12        -2.3269    1.3934    0.0325 C.2       1 <0>         0.4253
     17 N4         -1.1969    2.0382    0.0293 N.2       1 <0>        -0.5301
     18 C13        -3.7167   -0.6155    0.0360 C.3       1 <0>         0.0530
     19 C14        -4.1518   -0.8470    1.4601 C.2       1 <0>         0.4159
     20 O2         -3.4370   -0.4995    2.3770 O.2       1 <0>        -0.4608
     21 C15        -5.4373   -1.4914    1.7374 C.2       1 <0>        -0.2672
     22 C16        -6.4207   -1.9650    0.7542 C.2       1 <0>        -0.1614
     23 C17        -7.4392   -2.4862    1.4586 C.2       1 <0>         0.0324
     24 N5         -7.1701   -2.3659    2.7913 N.pl3     1 <0>        -0.4245
     25 C18        -5.9773   -1.7734    2.9782 C.2       1 <0>         0.1148
     26 C19        -5.3399   -1.4696    4.3095 C.3       1 <0>        -0.0926
     27 C20        -8.0559   -2.8186    3.8668 C.3       1 <0>         0.0790
     28 C21        -9.0076   -1.6851    4.2546 C.3       1 <0>         0.0623
     29 H1         -8.4350   -0.7654    4.4448 H         1 <0>         0.0883
     30 C22        -9.8668   -2.1133    5.4637 C.3       1 <0>        -0.1515
     31 C23       -11.2547   -1.5123    5.1112 C.3       1 <0>        -0.1549
     32 C24       -11.2546   -1.6570    3.5685 C.3       1 <0>         0.0499
     33 O3         -9.8982   -1.4053    3.1682 O.3       1 <0>        -0.3658
     34 C25        -8.6836   -3.1002    0.8708 C.3       1 <0>        -0.0837
     35 C26         4.5843    5.1611    1.4205 C.3       1 <0>        -0.1176
     36 H2          1.1712    7.4502   -1.2873 H         1 <0>         0.0696
     37 H3         -0.3473    6.5359   -0.9955 H         1 <0>         0.0749
     38 H4          0.6205    6.2209   -2.4757 H         1 <0>         0.0725
     39 H5          2.9506    6.7807    0.0074 H         1 <0>         0.1294
     40 H6          3.4495    2.7203    1.2101 H         1 <0>         0.1331
     41 H7          0.1106    3.8437   -1.2138 H         1 <0>         0.1353
     42 H8          1.7088   -1.4230   -0.0214 H         1 <0>         0.2035
     43 H9         -3.2446    1.9627    0.0443 H         1 <0>         0.2129
     44 H10        -4.4511    0.0270   -0.4719 H         1 <0>         0.1333
     45 H11        -3.6490   -1.5802   -0.4881 H         1 <0>         0.1371
     46 H12        -6.3399   -1.9077   -0.3212 H         1 <0>         0.1483
     47 H13        -6.0029   -1.8084    5.1193 H         1 <0>         0.0626
     48 H14        -5.1764   -0.3855    4.3988 H         1 <0>         0.0882
     49 H15        -4.3752   -1.9932    4.3821 H         1 <0>         0.0877
     50 H16        -8.6390   -3.6850    3.5213 H         1 <0>         0.1010
     51 H17        -7.4536   -3.1070    4.7409 H         1 <0>         0.1044
     52 H18        -9.8800   -3.2110    5.5337 H         1 <0>         0.0816
     53 H19        -9.4386   -1.6922    6.3853 H         1 <0>         0.0875
     54 H20       -12.0439   -2.0963    5.6074 H         1 <0>         0.0872
     55 H21       -11.3002   -0.4683    5.4547 H         1 <0>         0.0812
     56 H22       -11.5753   -2.6732    3.2955 H         1 <0>         0.0628
     57 H23       -11.9484   -0.9238    3.1314 H         1 <0>         0.0903
     58 H24        -9.3421   -3.4428    1.6826 H         1 <0>         0.0644
     59 H25        -8.4063   -3.9560    0.2377 H         1 <0>         0.0733
     60 H26        -9.2107   -2.3500    0.2630 H         1 <0>         0.0794
     61 H27         5.0124    4.2644    1.8925 H         1 <0>         0.0681
     62 H28         4.3481    5.9058    2.1949 H         1 <0>         0.0742
     63 H29         5.3117    5.5858    0.7130 H         1 <0>         0.0747
@<TRIPOS>BOND
     1    1    2 1
     2    1   36 1
     3    1   37 1
     4    1   38 1
     5    2    7 ar
     6    2    3 ar
     7    3    4 ar
     8    3   39 1
     9    4    5 ar
    10    4   35 1
    11    5    6 ar
    12    5   40 1
    13    6    7 ar
    14    6    8 1
    15    7   41 1
    16    8   12 1
    17    8    9 1
    18    9   17 1
    19    9   10 2
    20   10   11 1
    21   10   13 1
    22   11   12 2
    23   11   42 1
    24   13   14 2
    25   13   15 am
    26   15   16 1
    27   15   18 1
    28   16   17 2
    29   16   43 1
    30   18   19 1
    31   18   44 1
    32   18   45 1
    33   19   20 2
    34   19   21 1
    35   21   25 2
    36   21   22 1
    37   22   23 2
    38   22   46 1
    39   23   24 1
    40   23   34 1
    41   24   25 1
    42   24   27 1
    43   25   26 1
    44   26   47 1
    45   26   48 1
    46   26   49 1
    47   27   28 1
    48   27   50 1
    49   27   51 1
    50   28   29 1
    51   28   33 1
    52   28   30 1
    53   30   31 1
    54   30   52 1
    55   30   53 1
    56   31   32 1
    57   31   54 1
    58   31   55 1
    59   32   33 1
    60   32   56 1
    61   32   57 1
    62   34   58 1
    63   34   59 1
    64   34   60 1
    65   35   61 1
    66   35   62 1
    67   35   63 1
@<TRIPOS>MOLECULE
ZINC35890100
   58    62     0     0     0
SMALL
USER_CHARGES

@<TRIPOS>ATOM
      1 C1          3.9306    7.5292    4.6970 C.3       1 <0>        -0.1584
      2 C2          3.6983    6.1448    5.3056 C.3       1 <0>         0.1274
      3 H1          4.4037    5.9802    6.1201 H         1 <0>         0.1134
      4 C3          3.8948    5.0699    4.2294 C.3       1 <0>         0.1327
      5 N1          2.7800    5.1515    3.2752 N.pl3     1 <0>        -0.6459
      6 C4          1.4042    5.0608    3.7838 C.3       1 <0>         0.1225
      7 C5          1.2077    6.1357    4.8600 C.3       1 <0>         0.0743
      8 N2          2.3238    6.0555    5.8180 N.am      1 <0>        -0.5995
      9 C6          2.0920    5.8996    7.1365 C.2       1 <0>         0.5622
     10 O1          3.0167    5.9362    7.9246 O.2       1 <0>        -0.5195
     11 C7          0.7131    5.6839    7.6242 C.ar      1 <0>        -0.0971
     12 C8         -0.1652    4.8707    6.9062 C.ar      1 <0>        -0.0993
     13 C9         -1.4505    4.6733    7.3671 C.ar      1 <0>        -0.0738
     14 C10        -1.8696    5.2796    8.5380 C.ar      1 <0>        -0.1604
     15 C11        -1.0041    6.0872    9.2542 C.ar      1 <0>        -0.0700
     16 C12         0.2857    6.2880    8.8077 C.ar      1 <0>        -0.0647
     17 C13        -3.2751    5.0598    9.0352 C.3       1 <0>         0.5068
     18 F1         -3.3025    3.9434    9.8778 F         1 <0>        -0.1725
     19 F2         -3.7013    6.1888    9.7429 F         1 <0>        -0.1737
     20 F3         -4.1264    4.8432    7.9463 F         1 <0>        -0.1743
     21 C14         3.0198    5.3092    1.9317 C.2       1 <0>         0.6015
     22 N3          3.1861    6.5179    1.4627 N.2       1 <0>        -0.4548
     23 C15         3.4266    6.7557    0.1488 C.ar      1 <0>         0.1114
     24 C16         3.6023    8.0543   -0.3343 C.ar      1 <0>        -0.0799
     25 C17         3.8452    8.2588   -1.6741 C.ar      1 <0>        -0.0901
     26 C18         3.9177    7.1880   -2.5544 C.ar      1 <0>        -0.1058
     27 C19         3.7473    5.8972   -2.1019 C.ar      1 <0>        -0.0664
     28 C20         3.5016    5.6683   -0.7507 C.ar      1 <0>        -0.0561
     29 C21         3.3126    4.3167   -0.2113 C.2       1 <0>         0.2294
     30 N4          3.0801    4.1933    1.1402 N.pl3     1 <0>        -0.4479
     31 C22         2.9518    2.8568    1.3677 C.2       1 <0>         0.1883
     32 N5          3.1065    2.2480    0.2215 N.2       1 <0>        -0.2318
     33 N6          3.3111    3.1069   -0.7158 N.2       1 <0>        -0.2644
     34 C23         2.6818    2.2002    2.6970 C.3       1 <0>         0.1502
     35 O2          3.4793    1.0205    2.8163 O.3       1 <0>        -0.3717
     36 C24         3.4080    0.3981    4.1007 C.3       1 <0>         0.0307
     37 H2          3.7845    8.2916    5.4622 H         1 <0>         0.0589
     38 H3          4.9486    7.5909    4.3123 H         1 <0>         0.0669
     39 H4          3.2241    7.6914    3.8829 H         1 <0>         0.0752
     40 H5          4.8362    5.2422    3.7077 H         1 <0>         0.0911
     41 H6          3.9066    4.0842    4.6947 H         1 <0>         0.0725
     42 H7          0.7008    5.2271    2.9679 H         1 <0>         0.0921
     43 H8          1.2387    4.0745    4.2174 H         1 <0>         0.0717
     44 H9          1.1959    7.1213    4.3947 H         1 <0>         0.0870
     45 H10         0.2663    5.9633    5.3817 H         1 <0>         0.1116
     46 H11         0.1605    4.3975    5.9917 H         1 <0>         0.1435
     47 H12        -2.1311    4.0443    6.8125 H         1 <0>         0.1455
     48 H13        -1.3376    6.5579   10.1673 H         1 <0>         0.1464
     49 H14         0.9618    6.9147    9.3702 H         1 <0>         0.1465
     50 H15         3.5474    8.8955    0.3408 H         1 <0>         0.1435
     51 H16         3.9806    9.2642   -2.0446 H         1 <0>         0.1399
     52 H17         4.1087    7.3676   -3.6021 H         1 <0>         0.1400
     53 H18         3.8041    5.0680   -2.7916 H         1 <0>         0.1441
     54 H19         2.9330    2.8915    3.5014 H         1 <0>         0.0803
     55 H20         1.6269    1.9338    2.7631 H         1 <0>         0.0821
     56 H21         3.3295    1.1644    4.8719 H         1 <0>         0.0464
     57 H22         2.5328   -0.2501    4.1422 H         1 <0>         0.0520
     58 H23         4.3074   -0.1946    4.2676 H         1 <0>         0.0900
@<TRIPOS>BOND
     1    1    2 1
     2    1   37 1
     3    1   38 1
     4    1   39 1
     5    2    3 1
     6    2    8 1
     7    2    4 1
     8    4    5 1
     9    4   40 1
    10    4   41 1
    11    5    6 1
    12    5   21 1
    13    6    7 1
    14    6   42 1
    15    6   43 1
    16    7    8 1
    17    7   44 1
    18    7   45 1
    19    8    9 am
    20    9   10 2
    21    9   11 1
    22   11   16 ar
    23   11   12 ar
    24   12   13 ar
    25   12   46 1
    26   13   14 ar
    27   13   47 1
    28   14   15 ar
    29   14   17 1
    30   15   16 ar
    31   15   48 1
    32   16   49 1
    33   17   18 1
    34   17   19 1
    35   17   20 1
    36   21   30 1
    37   21   22 2
    38   22   23 1
    39   23   28 ar
    40   23   24 ar
    41   24   25 ar
    42   24   50 1
    43   25   26 ar
    44   25   51 1
    45   26   27 ar
    46   26   52 1
    47   27   28 ar
    48   27   53 1
    49   28   29 1
    50   29   33 2
    51   29   30 1
    52   30   31 1
    53   31   32 2
    54   31   34 1
    55   32   33 1
    56   34   35 1
    57   34   54 1
    58   34   55 1
    59   35   36 1
    60   36   56 1
    61   36   57 1
    62   36   58 1
@<TRIPOS>MOLECULE
ZINC46672176
   62    65     0     0     0
SMALL
USER_CHARGES

@<TRIPOS>ATOM
      1 C1          1.5873    2.4009   -1.5711 C.3       1 <0>        -0.1264
      2 C2          1.3872    0.9101   -1.6642 C.ar      1 <0>        -0.0221
      3 C3          1.6267    0.2537   -2.8572 C.ar      1 <0>        -0.1483
      4 C4          1.4432   -1.1136   -2.9426 C.ar      1 <0>        -0.0134
      5 C5          1.0208   -1.8249   -1.8348 C.ar      1 <0>        -0.6887
      6 C6          0.7823   -1.1688   -0.6420 C.ar      1 <0>         0.0290
      7 C7          0.9699    0.1983   -0.5554 C.ar      1 <0>        -0.1452
      8 C8          0.3213   -1.9440    0.5653 C.3       1 <0>        -0.1916
      9 S1          0.7858   -3.5677   -1.9440 S.o2      1 <0>         2.6921
     10 O1         -0.4433   -3.8535   -1.2906 O.2       1 <0>        -0.9492
     11 O2          1.0308   -3.9266   -3.2969 O.2       1 <0>        -0.9534
     12 N1          1.9781   -4.2799   -1.0421 N.pl3     1 <0>        -0.9946
     13 C9          3.2969   -4.5550   -1.6293 C.3       1 <0>         0.1072
     14 C10         4.3699   -3.8918   -0.7568 C.3       1 <0>         0.0906
     15 N2          4.1282   -4.2597    0.6454 N.am      1 <0>        -0.6042
     16 C11         2.8094   -3.9847    1.2327 C.3       1 <0>         0.0924
     17 C12         1.7383   -4.6427    0.3618 C.3       1 <0>         0.0951
     18 C13         5.0986   -4.8394    1.3795 C.2       1 <0>         0.6065
     19 O3          4.9161   -5.0625    2.5609 O.2       1 <0>        -0.5235
     20 C14         6.3813   -5.2029    0.7502 C.2       1 <0>        -0.2879
     21 C15         7.2939   -4.3171    0.1329 C.2       1 <0>         0.0952
     22 N3          8.3054   -5.0164   -0.3023 N.2       1 <0>        -0.2807
     23 N4          8.0934   -6.3638    0.0103 N.pl3     1 <0>        -0.3122
     24 C16         6.9185   -6.4709    0.6588 C.2       1 <0>         0.1808
     25 C17         6.3021   -7.7414    1.1852 C.3       1 <0>        -0.0414
     26 C18         6.3036   -7.7133    2.7149 C.3       1 <0>        -0.1434
     27 C19         4.8631   -7.8580    0.6786 C.3       1 <0>        -0.1449
     28 C20         8.9579   -7.4195   -0.2945 C.ar      1 <0>         0.3569
     29 C21         9.8075   -7.3190   -1.3894 C.ar      1 <0>        -0.1526
     30 C22        10.6587   -8.3711   -1.6799 C.ar      1 <0>        -0.0537
     31 C23        10.6298   -9.4914   -0.8611 C.ar      1 <0>        -0.1742
     32 C24         9.7592   -9.5228    0.2108 C.ar      1 <0>         0.1290
     33 N5          8.9632   -8.5025    0.4655 N.ar      1 <0>        -0.4943
     34 H1          2.6149    2.6118   -1.2753 H         1 <0>         0.0800
     35 H2          1.3879    2.8555   -2.5415 H         1 <0>         0.0737
     36 H3          0.9036    2.8136   -0.8292 H         1 <0>         0.0731
     37 H4          1.9567    0.8093   -3.7225 H         1 <0>         0.1327
     38 H5          1.6296   -1.6262   -3.8747 H         1 <0>         0.1427
     39 H6          0.7872    0.7104    0.3777 H         1 <0>         0.1318
     40 H7          1.1826   -2.2040    1.1807 H         1 <0>         0.0897
     41 H8         -0.3698   -1.3339    1.1468 H         1 <0>         0.0882
     42 H9         -0.1822   -2.8550    0.2416 H         1 <0>         0.1104
     43 H10         3.4657   -5.6313   -1.6618 H         1 <0>         0.0835
     44 H11         3.3409   -4.1447   -2.6382 H         1 <0>         0.1028
     45 H12         5.3564   -4.2407   -1.0618 H         1 <0>         0.1012
     46 H13         4.3122   -2.8088   -0.8660 H         1 <0>         0.0786
     47 H14         2.7654   -4.3950    2.2416 H         1 <0>         0.1108
     48 H15         2.6407   -2.9083    1.2651 H         1 <0>         0.0782
     49 H16         0.7531   -4.2904    0.6675 H         1 <0>         0.1112
     50 H17         1.7935   -5.7255    0.4744 H         1 <0>         0.0852
     51 H18         7.1744   -3.2479    0.0381 H         1 <0>         0.1979
     52 H19         6.8804   -8.5972    0.8369 H         1 <0>         0.1047
     53 H20         5.5883   -6.9693    3.0654 H         1 <0>         0.0840
     54 H21         6.0232   -8.6950    3.0966 H         1 <0>         0.0614
     55 H22         7.3005   -7.4556    3.0726 H         1 <0>         0.0535
     56 H23         4.8669   -7.9572   -0.4068 H         1 <0>         0.0537
     57 H24         4.3919   -8.7352    1.1220 H         1 <0>         0.0702
     58 H25         4.3054   -6.9648    0.9599 H         1 <0>         0.0604
     59 H26         9.8034   -6.4320   -2.0056 H         1 <0>         0.1478
     60 H27        11.3299   -8.3214   -2.5246 H         1 <0>         0.1474
     61 H28        11.2808  -10.3298   -1.0602 H         1 <0>         0.1460
     62 H29         9.7325  -10.3924    0.8507 H         1 <0>         0.1701
@<TRIPOS>BOND
     1    1    2 1
     2    1   34 1
     3    1   35 1
     4    1   36 1
     5    2    7 ar
     6    2    3 ar
     7    3    4 ar
     8    3   37 1
     9    4    5 ar
    10    4   38 1
    11    5    6 ar
    12    5    9 1
    13    6    7 ar
    14    6    8 1
    15    7   39 1
    16    8   40 1
    17    8   41 1
    18    8   42 1
    19    9   10 2
    20    9   11 2
    21    9   12 1
    22   12   17 1
    23   12   13 1
    24   13   14 1
    25   13   43 1
    26   13   44 1
    27   14   15 1
    28   14   45 1
    29   14   46 1
    30   15   16 1
    31   15   18 am
    32   16   17 1
    33   16   47 1
    34   16   48 1
    35   17   49 1
    36   17   50 1
    37   18   19 2
    38   18   20 1
    39   20   24 2
    40   20   21 1
    41   21   22 2
    42   21   51 1
    43   22   23 1
    44   23   24 1
    45   23   28 1
    46   24   25 1
    47   25   26 1
    48   25   27 1
    49   25   52 1
    50   26   53 1
    51   26   54 1
    52   26   55 1
    53   27   56 1
    54   27   57 1
    55   27   58 1
    56   28   33 ar
    57   28   29 ar
    58   29   30 ar
    59   29   59 1
    60   30   31 ar
    61   30   60 1
    62   31   32 ar
    63   31   61 1
    64   32   33 ar
    65   32   62 1
@<TRIPOS>MOLECULE
ZINC04268171
   81    84     0     0     0
SMALL
USER_CHARGES
(tetraacetoxy-trimethyl-methylene-oxo-BLAHyl) acetate
@<TRIPOS>ATOM
      1 C1         -6.8079   -0.0794    2.2951 C.3       1 <0>        -0.1513
      2 C2         -5.3259    0.0796    2.5179 C.2       1 <0>         0.4560
      3 O1         -4.6365   -0.8933    2.7130 O.2       1 <0>        -0.5129
      4 O2         -4.7719    1.3021    2.4997 O.3       1 <0>        -0.3443
      5 C3         -3.3383    1.3798    2.7220 C.3       1 <0>         0.0965
      6 H1         -2.8703    0.4772    2.3284 H         1 <0>         0.0821
      7 C4         -3.0849    1.4608    4.2197 C.3       1 <0>        -0.1335
      8 C5         -3.7422    2.7226    4.7712 C.3       1 <0>        -0.1056
      9 C6         -3.1529    3.9641    4.1123 C.3       1 <0>        -0.0464
     10 C7         -3.1433    3.9020    2.6070 C.3       1 <0>        -0.0480
     11 H2         -2.3349    4.5808    2.3060 H         1 <0>         0.0798
     12 C8         -2.7759    2.5869    1.9739 C.3       1 <0>        -0.0095
     13 C9         -3.0671    2.4285    0.5095 C.3       1 <0>        -0.0448
     14 H3         -3.8653    1.6304    0.5590 H         1 <0>         0.0700
     15 C10        -2.0359    1.6987   -0.3246 C.3       1 <0>         0.1164
     16 H4         -1.7994    0.7359    0.1796 H         1 <0>         0.0966
     17 C11        -2.6027    1.3247   -1.6978 C.3       1 <0>        -0.1250
     18 C12        -3.4246    2.4447   -2.3335 C.3       1 <0>         0.1508
     19 C13        -3.1681    3.7877   -1.6077 C.3       1 <0>         0.0810
     20 H5         -3.7556    4.5833   -2.1211 H         1 <0>         0.1133
     21 C14        -3.8263    3.4819   -0.2427 C.3       1 <0>        -0.0686
     22 C15        -4.1124    4.7634    0.4975 C.3       1 <0>         0.1090
     23 H6         -4.9856    5.2439    0.0549 H         1 <0>         0.0896
     24 C16        -4.4065    4.4763    1.9756 C.3       1 <0>        -0.1307
     25 O3         -2.9779    5.6577    0.3981 O.3       1 <0>        -0.3328
     26 C17        -3.2359    6.9747    0.4250 C.2       1 <0>         0.4537
     27 O4         -4.3746    7.3652    0.5284 O.2       1 <0>        -0.5083
     28 C18        -2.1053    7.9662    0.3262 C.3       1 <0>        -0.1477
     29 C19        -5.1499    2.8477   -0.6917 C.2       1 <0>         0.4123
     30 O5         -6.2014    2.8945   -0.0973 O.2       1 <0>        -0.3998
     31 C20        -4.8898    2.1806   -1.9752 C.2       1 <0>        -0.2345
     32 C21        -5.7613    1.4784   -2.6984 C.2       1 <0>        -0.0508
     33 O6         -1.7942    4.2002   -1.5635 O.3       1 <0>        -0.2850
     34 C22        -1.3614    4.9858   -2.5623 C.2       1 <0>         0.4550
     35 O7         -2.1190    5.3137   -3.4446 O.2       1 <0>        -0.5148
     36 C23         0.0693    5.4586   -2.5831 C.3       1 <0>        -0.1451
     37 O8         -3.2279    2.5413   -3.7743 O.3       1 <0>        -0.3363
     38 C24        -3.9925    3.4242   -4.4359 C.2       1 <0>         0.4697
     39 O9         -4.8637    4.0250   -3.8529 O.2       1 <0>        -0.4981
     40 C25        -3.7644    3.6659   -5.9058 C.3       1 <0>        -0.1434
     41 O10        -0.7837    2.3996   -0.5040 O.3       1 <0>        -0.3146
     42 C26         0.3178    1.6487   -0.6610 C.2       1 <0>         0.4519
     43 O11         0.2342    0.4434   -0.6483 O.2       1 <0>        -0.5140
     44 C27         1.6578    2.3091   -0.8592 C.3       1 <0>        -0.1490
     45 C28        -1.2601    2.4598    2.1262 C.3       1 <0>        -0.1670
     46 C29        -3.9737    5.1665    4.6083 C.3       1 <0>        -0.1443
     47 C30        -1.7306    4.1835    4.6487 C.3       1 <0>        -0.1497
     48 H7         -7.2588    0.9003    2.1375 H         1 <0>         0.0939
     49 H8         -6.9785   -0.7033    1.4177 H         1 <0>         0.1028
     50 H9         -7.2582   -0.5504    3.1689 H         1 <0>         0.1052
     51 H10        -3.5452    0.5855    4.6994 H         1 <0>         0.0691
     52 H11        -2.0241    1.4430    4.4417 H         1 <0>         0.0866
     53 H12        -4.8183    2.6898    4.5846 H         1 <0>         0.0698
     54 H13        -3.5775    2.7767    5.8513 H         1 <0>         0.0663
     55 H14        -1.7696    1.0604   -2.3616 H         1 <0>         0.0987
     56 H15        -3.2281    0.4297   -1.5857 H         1 <0>         0.0947
     57 H16        -5.2216    3.7512    2.0457 H         1 <0>         0.0964
     58 H17        -4.7269    5.4217    2.4064 H         1 <0>         0.0846
     59 H18        -1.9247    8.2081   -0.7211 H         1 <0>         0.1013
     60 H19        -2.3698    8.8740    0.8684 H         1 <0>         0.1035
     61 H20        -1.2037    7.5336    0.7599 H         1 <0>         0.0959
     62 H21        -5.4325    0.9617   -3.5879 H         1 <0>         0.1207
     63 H22        -6.7965    1.4260   -2.3950 H         1 <0>         0.1279
     64 H23         0.5949    5.0644   -1.7134 H         1 <0>         0.0946
     65 H24         0.5555    5.1054   -3.4924 H         1 <0>         0.1040
     66 H25         0.0923    6.5481   -2.5585 H         1 <0>         0.1048
     67 H26        -2.9436    3.0389   -6.2540 H         1 <0>         0.0879
     68 H27        -4.6703    3.4192   -6.4595 H         1 <0>         0.1039
     69 H28        -3.5143    4.7145   -6.0670 H         1 <0>         0.1096
     70 H29         2.4264    1.5445   -0.9727 H         1 <0>         0.1007
     71 H30         1.6280    2.9299   -1.7546 H         1 <0>         0.0984
     72 H31         1.8883    2.9304    0.0062 H         1 <0>         0.1017
     73 H32        -0.7729    3.2918    1.6179 H         1 <0>         0.0833
     74 H33        -0.9986    2.4769    3.1842 H         1 <0>         0.0721
     75 H34        -0.9282    1.5199    1.6850 H         1 <0>         0.0515
     76 H35        -3.8999    5.2338    5.6938 H         1 <0>         0.0573
     77 H36        -3.5854    6.0811    4.1603 H         1 <0>         0.0534
     78 H37        -5.0175    5.0366    4.3225 H         1 <0>         0.0575
     79 H38        -1.1655    3.2547    4.5707 H         1 <0>         0.0600
     80 H39        -1.2371    4.9593    4.0631 H         1 <0>         0.0569
     81 H40        -1.7796    4.4924    5.6928 H         1 <0>         0.0571
@<TRIPOS>BOND
     1    1    2 1
     2    1   48 1
     3    1   49 1
     4    1   50 1
     5    2    3 2
     6    2    4 1
     7    4    5 1
     8    5    6 1
     9    5   12 1
    10    5    7 1
    11    7    8 1
    12    7   51 1
    13    7   52 1
    14    8    9 1
    15    8   53 1
    16    8   54 1
    17    9   10 1
    18    9   46 1
    19    9   47 1
    20   10   11 1
    21   10   24 1
    22   10   12 1
    23   12   13 1
    24   12   45 1
    25   13   14 1
    26   13   21 1
    27   13   15 1
    28   15   16 1
    29   15   17 1
    30   15   41 1
    31   17   18 1
    32   17   55 1
    33   17   56 1
    34   18   31 1
    35   18   19 1
    36   18   37 1
    37   19   20 1
    38   19   21 1
    39   19   33 1
    40   21   22 1
    41   21   29 1
    42   22   23 1
    43   22   24 1
    44   22   25 1
    45   24   57 1
    46   24   58 1
    47   25   26 1
    48   26   27 2
    49   26   28 1
    50   28   59 1
    51   28   60 1
    52   28   61 1
    53   29   30 2
    54   29   31 1
    55   31   32 2
    56   32   62 1
    57   32   63 1
    58   33   34 1
    59   34   35 2
    60   34   36 1
    61   36   64 1
    62   36   65 1
    63   36   66 1
    64   37   38 1
    65   38   39 2
    66   38   40 1
    67   40   67 1
    68   40   68 1
    69   40   69 1
    70   41   42 1
    71   42   43 2
    72   42   44 1
    73   44   70 1
    74   44   71 1
    75   44   72 1
    76   45   73 1
    77   45   74 1
    78   45   75 1
    79   46   76 1
    80   46   77 1
    81   46   78 1
    82   47   79 1
    83   47   80 1
    84   47   81 1
@<TRIPOS>MOLECULE
ZINC12480161
   69    73     0     0     0
SMALL
USER_CHARGES
(2R)-2-[[2-(benzotriazol-1-yl)acetyl]-(2-furylmethyl)amino]-2-(4-ethoxyphenyl)-N-[[(2S)-tetrahydrofuran-2-yl]methyl]acetamide
@<TRIPOS>ATOM
      1 C1          5.8627   -9.2874    0.9441 C.3       1 <0>        -0.1535
      2 C2          5.2799   -8.3897   -0.1492 C.3       1 <0>         0.0537
      3 O1          5.7428   -7.0506    0.0369 O.3       1 <0>        -0.3141
      4 C3          5.3147   -6.1201   -0.8563 C.ar      1 <0>         0.1417
      5 C4          5.7252   -4.8004   -0.7353 C.ar      1 <0>        -0.1462
      6 C5          5.2883   -3.8563   -1.6442 C.ar      1 <0>        -0.0611
      7 C6          4.4423   -4.2256   -2.6736 C.ar      1 <0>        -0.1425
      8 C7          4.0273   -5.5391   -2.7931 C.ar      1 <0>        -0.0567
      9 C8          4.4662   -6.4882   -1.8903 C.ar      1 <0>        -0.2051
     10 C9          3.9668   -3.1935   -3.6635 C.3       1 <0>         0.1815
     11 H1          4.6558   -2.3490   -3.6671 H         1 <0>         0.1196
     12 C10         2.5914   -2.7181   -3.2719 C.2       1 <0>         0.5112
     13 O2          1.7064   -2.6739   -4.1000 O.2       1 <0>        -0.5071
     14 N1          2.3448   -2.3419   -2.0014 N.am      1 <0>        -0.7128
     15 C11         1.0078   -1.8797   -1.6206 C.3       1 <0>         0.1255
     16 C12         0.9977   -1.5167   -0.1344 C.3       1 <0>         0.0630
     17 H2          1.3618   -2.3582    0.4550 H         1 <0>         0.0761
     18 C13        -0.4327   -1.1489    0.3055 C.3       1 <0>        -0.1489
     19 C14        -0.3034    0.2953    0.8479 C.3       1 <0>        -0.1559
     20 C15         1.2112    0.3890    1.1637 C.3       1 <0>         0.0459
     21 O3          1.8252   -0.3642    0.0960 O.3       1 <0>        -0.3712
     22 N2          3.9155   -3.7876   -5.0017 N.am      1 <0>        -0.5902
     23 C16         2.6287   -4.1875   -5.5767 C.3       1 <0>         0.1762
     24 C17         2.1448   -3.1156   -6.5190 C.2       1 <0>        -0.0068
     25 C18         2.3057   -3.1110   -7.8545 C.2       1 <0>        -0.2249
     26 C19         1.7000   -1.9276   -8.3359 C.2       1 <0>        -0.2173
     27 C20         1.2125   -1.2758   -7.2650 C.2       1 <0>        -0.0419
     28 O4          1.4848   -2.0000   -6.1672 O.3       1 <0>        -0.1251
     29 C21         5.0520   -3.9661   -5.7037 C.2       1 <0>         0.5073
     30 O5          6.1172   -3.6351   -5.2276 O.2       1 <0>        -0.4999
     31 C22         4.9992   -4.5772   -7.0803 C.3       1 <0>         0.1082
     32 N3          6.3549   -4.6632   -7.6287 N.pl3     1 <0>        -0.3839
     33 C23         6.9995   -3.7110   -8.3820 C.ar      1 <0>         0.0986
     34 C24         6.6477   -2.4508   -8.8536 C.ar      1 <0>        -0.1221
     35 C25         7.5389   -1.7312   -9.5991 C.ar      1 <0>        -0.0642
     36 C26         8.7953   -2.2470   -9.8905 C.ar      1 <0>        -0.1347
     37 C27         9.1674   -3.4772   -9.4333 C.ar      1 <0>        -0.0335
     38 C28         8.2704   -4.2375   -8.6710 C.ar      1 <0>        -0.0160
     39 N4          8.3453   -5.4592   -8.1065 N.2       1 <0>        -0.2131
     40 N5          7.2487   -5.7360   -7.4936 N.2       1 <0>         0.0028
     41 H3          5.5097  -10.3088    0.8021 H         1 <0>         0.0800
     42 H4          6.9511   -9.2681    0.8881 H         1 <0>         0.0676
     43 H5          5.5427   -8.9248    1.9209 H         1 <0>         0.0669
     44 H6          4.1915   -8.4089   -0.0933 H         1 <0>         0.0626
     45 H7          5.6000   -8.7523   -1.1261 H         1 <0>         0.0634
     46 H8          6.3860   -4.5114    0.0686 H         1 <0>         0.1352
     47 H9          5.6075   -2.8288   -1.5505 H         1 <0>         0.1324
     48 H10         3.3626   -5.8241   -3.5952 H         1 <0>         0.1215
     49 H11         4.1456   -7.5149   -1.9868 H         1 <0>         0.1301
     50 H12         3.0526   -2.3773   -1.3390 H         1 <0>         0.4060
     51 H13         0.2829   -2.6724   -1.8060 H         1 <0>         0.0828
     52 H14         0.7451   -1.0018   -2.2109 H         1 <0>         0.0789
     53 H15        -0.7753   -1.8223    1.0912 H         1 <0>         0.0814
     54 H16        -1.1128   -1.1773   -0.5459 H         1 <0>         0.0832
     55 H17        -0.5880    1.0231    0.0881 H         1 <0>         0.0791
     56 H18        -0.8981    0.4259    1.7519 H         1 <0>         0.0830
     57 H19         1.5442    1.4267    1.1423 H         1 <0>         0.0952
     58 H20         1.4307   -0.0657    2.1297 H         1 <0>         0.0630
     59 H21         2.7498   -5.1233   -6.1223 H         1 <0>         0.0960
     60 H22         1.9004   -4.3245   -4.7774 H         1 <0>         0.1303
     61 H23         2.8005   -3.8672   -8.4457 H         1 <0>         0.1439
     62 H24         1.6435   -1.6064   -9.3655 H         1 <0>         0.1457
     63 H25         0.6909   -0.3304   -7.2846 H         1 <0>         0.1976
     64 H26         4.5684   -5.5765   -7.0179 H         1 <0>         0.1324
     65 H27         4.3831   -3.9559   -7.7302 H         1 <0>         0.1351
     66 H28         5.6729   -2.0422   -8.6317 H         1 <0>         0.1284
     67 H29         7.2640   -0.7528   -9.9645 H         1 <0>         0.1378
     68 H30         9.4877   -1.6647  -10.4803 H         1 <0>         0.1380
     69 H31        10.1461   -3.8690   -9.6681 H         1 <0>         0.1394
@<TRIPOS>BOND
     1    1    2 1
     2    1   41 1
     3    1   42 1
     4    1   43 1
     5    2    3 1
     6    2   44 1
     7    2   45 1
     8    3    4 1
     9    4    9 ar
    10    4    5 ar
    11    5    6 ar
    12    5   46 1
    13    6    7 ar
    14    6   47 1
    15    7    8 ar
    16    7   10 1
    17    8    9 ar
    18    8   48 1
    19    9   49 1
    20   10   11 1
    21   10   12 1
    22   10   22 1
    23   12   13 2
    24   12   14 am
    25   14   15 1
    26   14   50 1
    27   15   16 1
    28   15   51 1
    29   15   52 1
    30   16   17 1
    31   16   21 1
    32   16   18 1
    33   18   19 1
    34   18   53 1
    35   18   54 1
    36   19   20 1
    37   19   55 1
    38   19   56 1
    39   20   21 1
    40   20   57 1
    41   20   58 1
    42   22   23 1
    43   22   29 am
    44   23   24 1
    45   23   59 1
    46   23   60 1
    47   24   28 1
    48   24   25 2
    49   25   26 1
    50   25   61 1
    51   26   27 2
    52   26   62 1
    53   27   28 1
    54   27   63 1
    55   29   30 2
    56   29   31 1
    57   31   32 1
    58   31   64 1
    59   31   65 1
    60   32   40 1
    61   32   33 1
    62   33   38 ar
    63   33   34 ar
    64   34   35 ar
    65   34   66 1
    66   35   36 ar
    67   35   67 1
    68   36   37 ar
    69   36   68 1
    70   37   38 ar
    71   37   69 1
    72   38   39 1
    73   39   40 2
@<TRIPOS>MOLECULE
ZINC20083366
   70    74     0     0     0
SMALL
USER_CHARGES
3-[(S)-[1-(2-methoxyethyl)tetrazol-5-yl]-[4-(2-methoxyphenyl)piperazin-1-yl]methyl]-5,8-dimethyl-1H-quinolin-2-one
@<TRIPOS>ATOM
      1 C1          2.8087    4.1238    3.1837 C.3       1 <0>        -0.1250
      2 C2          3.6844    3.7786    2.0068 C.ar      1 <0>        -0.0205
      3 C3          4.9637    4.2539    1.9407 C.ar      1 <0>        -0.1492
      4 C4          5.7779    3.9425    0.8606 C.ar      1 <0>        -0.0572
      5 C5          5.3124    3.1485   -0.1655 C.ar      1 <0>        -0.1382
      6 C6          4.0138    2.6528   -0.1198 C.ar      1 <0>         0.2025
      7 C7          3.1911    2.9704    0.9776 C.ar      1 <0>        -0.1351
      8 C8          1.8239    2.4476    1.0142 C.2       1 <0>        -0.0014
      9 C9          1.4020    1.6654   -0.0098 C.2       1 <0>        -0.1812
     10 C10         2.2670    1.3767   -1.0871 C.2       1 <0>         0.5498
     11 O1          1.8661    0.6749   -1.9994 O.2       1 <0>        -0.5083
     12 N1          3.5224    1.8560   -1.1320 N.am      1 <0>        -0.6438
     13 H1          4.1599    1.6040   -1.9923 H         1 <0>         0.4406
     14 C11         0.0022    1.1073   -0.0008 C.3       1 <0>         0.2316
     15 H2          0.0322    0.0083   -0.0377 H         1 <0>         0.1212
     16 C12        -0.7134    1.5659    1.2437 C.2       1 <0>         0.1533
     17 N2         -1.1889    2.7650    1.4760 N.2       1 <0>        -0.2855
     18 N3         -1.7297    2.7589    2.6455 N.2       1 <0>        -0.0676
     19 N4         -1.6045    1.5891    3.1683 N.2       1 <0>        -0.0850
     20 N5         -0.9831    0.8252    2.3347 N.pl3     1 <0>        -0.2984
     21 C13        -0.6366   -0.5837    2.5374 C.3       1 <0>         0.1075
     22 C14         0.7454   -0.6807    3.1868 C.3       1 <0>         0.0466
     23 O2          1.0834   -2.0550    3.3845 O.3       1 <0>        -0.3808
     24 C15         2.3623   -2.2579    3.9888 C.3       1 <0>         0.0294
     25 N6         -0.7227    1.5839   -1.1862 N.3       1 <0>        -0.4930
     26 C16        -0.7201    3.0521   -1.2501 C.3       1 <0>         0.0363
     27 C17        -1.4140    3.5053   -2.5367 C.3       1 <0>         0.0563
     28 N7         -2.7872    2.9825   -2.5599 N.pl3     1 <0>        -0.4780
     29 C18        -2.7898    1.5143   -2.4960 C.3       1 <0>         0.0663
     30 C19        -2.0959    1.0611   -1.2094 C.3       1 <0>         0.0523
     31 C20        -3.4779    3.4367   -3.6893 C.ar      1 <0>         0.0796
     32 C21        -2.7964    4.0924   -4.7043 C.ar      1 <0>        -0.1316
     33 C22        -3.4799    4.5356   -5.8209 C.ar      1 <0>        -0.1331
     34 C23        -4.8441    4.3362   -5.9249 C.ar      1 <0>        -0.1020
     35 C24        -5.5309    3.6880   -4.9148 C.ar      1 <0>        -0.1906
     36 C25        -4.8526    3.2365   -3.7948 C.ar      1 <0>         0.1177
     37 O3         -5.5270    2.5997   -2.8000 O.3       1 <0>        -0.3052
     38 C26        -6.9349    2.4298   -2.9763 C.3       1 <0>         0.0223
     39 C27         6.2071    2.8192   -1.3326 C.3       1 <0>        -0.1122
     40 H3          3.3686    4.7629    3.8823 H         1 <0>         0.0769
     41 H4          2.5028    3.2000    3.6966 H         1 <0>         0.0692
     42 H5          1.9155    4.6605    2.8312 H         1 <0>         0.0779
     43 H6          5.3446    4.8777    2.7358 H         1 <0>         0.1309
     44 H7          6.7866    4.3267    0.8236 H         1 <0>         0.1332
     45 H8          1.1672    2.6771    1.8403 H         1 <0>         0.1331
     46 H9         -1.3838   -1.0543    3.1933 H         1 <0>         0.1291
     47 H10        -0.6228   -1.1012    1.5668 H         1 <0>         0.1224
     48 H11         1.4926   -0.2100    2.5309 H         1 <0>         0.0602
     49 H12         0.7316   -0.1632    4.1574 H         1 <0>         0.0670
     50 H13         2.5457   -3.3362    4.1056 H         1 <0>         0.0972
     51 H14         2.3823   -1.7735    4.9762 H         1 <0>         0.0477
     52 H15         3.1434   -1.8202    3.3497 H         1 <0>         0.0465
     53 H16        -1.2572    3.4579   -0.3802 H         1 <0>         0.0907
     54 H17         0.3174    3.4176   -1.2436 H         1 <0>         0.0774
     55 H18        -1.4384    4.6044   -2.5725 H         1 <0>         0.0866
     56 H19        -0.8601    3.1224   -3.4065 H         1 <0>         0.0522
     57 H20        -3.8273    1.1489   -2.5025 H         1 <0>         0.0940
     58 H21        -2.2527    1.1084   -3.3659 H         1 <0>         0.0518
     59 H22        -2.0704   -0.0380   -1.1730 H         1 <0>         0.0843
     60 H23        -2.6488    1.4441   -0.3390 H         1 <0>         0.0459
     61 H24        -1.7315    4.2531   -4.6237 H         1 <0>         0.1324
     62 H25        -2.9478    5.0427   -6.6122 H         1 <0>         0.1238
     63 H26        -5.3748    4.6879   -6.7973 H         1 <0>         0.1238
     64 H27        -6.5965    3.5342   -4.9990 H         1 <0>         0.1292
     65 H28        -7.3527    1.9041   -2.1051 H         1 <0>         0.1000
     66 H29        -7.1220    1.8393   -3.8853 H         1 <0>         0.0541
     67 H30        -7.4137    3.4153   -3.0742 H         1 <0>         0.0555
     68 H31         5.6626    2.1799   -2.0431 H         1 <0>         0.0588
     69 H32         7.1002    2.2882   -0.9715 H         1 <0>         0.0786
     70 H33         6.5115    3.7492   -1.8350 H         1 <0>         0.0791
@<TRIPOS>BOND
     1    1    2 1
     2    1   40 1
     3    1   41 1
     4    1   42 1
     5    2    7 ar
     6    2    3 ar
     7    3    4 ar
     8    3   43 1
     9    4    5 ar
    10    4   44 1
    11    5    6 ar
    12    5   39 1
    13    6   12 1
    14    6    7 ar
    15    7    8 1
    16    8    9 2
    17    8   45 1
    18    9   10 1
    19    9   14 1
    20   10   11 2
    21   10   12 am
    22   12   13 1
    23   14   15 1
    24   14   16 1
    25   14   25 1
    26   16   20 1
    27   16   17 2
    28   17   18 1
    29   18   19 2
    30   19   20 1
    31   20   21 1
    32   21   22 1
    33   21   46 1
    34   21   47 1
    35   22   23 1
    36   22   48 1
    37   22   49 1
    38   23   24 1
    39   24   50 1
    40   24   51 1
    41   24   52 1
    42   25   30 1
    43   25   26 1
    44   26   27 1
    45   26   53 1
    46   26   54 1
    47   27   28 1
    48   27   55 1
    49   27   56 1
    50   28   29 1
    51   28   31 1
    52   29   30 1
    53   29   57 1
    54   29   58 1
    55   30   59 1
    56   30   60 1
    57   31   36 ar
    58   31   32 ar
    59   32   33 ar
    60   32   61 1
    61   33   34 ar
    62   33   62 1
    63   34   35 ar
    64   34   63 1
    65   35   36 ar
    66   35   64 1
    67   36   37 1
    68   37   38 1
    69   38   65 1
    70   38   66 1
    71   38   67 1
    72   39   68 1
    73   39   69 1
    74   39   70 1
@<TRIPOS>MOLECULE
ZINC36692363
   54    58     0     0     0
SMALL
USER_CHARGES

@<TRIPOS>ATOM
      1 C1         -0.0178    1.4608    0.0101 C.3       1 <0>         0.0852
      2 N1          0.0021   -0.0041    0.0020 N.am      1 <0>        -0.5105
      3 C2         -1.1889   -0.7120    0.0039 C.2       1 <0>         0.3241
      4 C3         -1.1437   -2.1005   -0.0039 C.2       1 <0>        -0.1409
      5 C4          0.1107   -2.7476   -0.0134 C.2       1 <0>         0.5931
      6 O1          0.1765   -3.9638   -0.0207 O.2       1 <0>        -0.5058
      7 N2          1.2361   -2.0032   -0.0148 N.am      1 <0>        -0.5511
      8 C5          1.1776   -0.6603   -0.0127 C.2       1 <0>         0.7079
      9 O2          2.2126   -0.0219   -0.0196 O.2       1 <0>        -0.5321
     10 C6          2.5413   -2.6685   -0.0246 C.3       1 <0>         0.0852
     11 N3         -2.4557   -2.5297    0.0001 N.pl3     1 <0>        -0.4058
     12 C7         -3.2306   -1.4275    0.0098 C.2       1 <0>         0.2806
     13 N4         -2.4766   -0.3579    0.0120 N.2       1 <0>        -0.4890
     14 C8         -2.9179   -3.9199   -0.0060 C.3       1 <0>         0.0908
     15 C9         -2.9518   -4.4442    1.4064 C.2       1 <0>         0.5120
     16 O3         -2.6224   -3.7272    2.3274 O.2       1 <0>        -0.4689
     17 N5         -3.3483   -5.7098    1.6461 N.am      1 <0>        -0.4937
     18 C10        -3.7462   -6.5759    0.5336 C.3       1 <0>         0.1552
     19 C11        -2.5402   -7.3186    0.0189 C.ar      1 <0>         0.0827
     20 C12        -2.2753   -8.5943    0.4804 C.ar      1 <0>        -0.1391
     21 C13        -1.1633   -9.2689    0.0006 C.ar      1 <0>        -0.0752
     22 C14        -0.3556   -8.6322   -0.9297 C.ar      1 <0>        -0.1566
     23 C15        -0.6837   -7.3556   -1.3446 C.ar      1 <0>         0.1131
     24 N6         -1.7529   -6.7460   -0.8704 N.ar      1 <0>        -0.4705
     25 C16        -3.3795   -6.1918    2.9446 C.2       1 <0>         0.3849
     26 N7         -3.7264   -7.3832    3.3725 N.2       1 <0>        -0.5478
     27 C17        -3.7088   -7.7184    4.6806 C.ar      1 <0>         0.1621
     28 C18        -4.0559   -8.9564    5.2696 C.ar      1 <0>        -0.0691
     29 C19        -3.9817   -9.1313    6.6266 C.ar      1 <0>        -0.0467
     30 C20        -3.5672   -8.1088    7.4680 C.ar      1 <0>        -0.0482
     31 C21        -3.2201   -6.8849    6.9263 C.ar      1 <0>         0.0257
     32 C22        -3.2909   -6.7005    5.5680 C.ar      1 <0>        -0.2086
     33 S1         -2.9500   -5.3519    4.4627 S.3       1 <0>         0.1478
     34 N8         -3.4976   -8.3259    8.9306 N.pl3     1 <0>         0.0379
     35 O4         -3.8028   -9.3984    9.3977 O.2       1 <0>        -0.1493
     36 O5         -3.1355   -7.4307    9.6580 O.3       1 <0>        -0.1565
     37 H1          1.0048    1.8381    0.0023 H         1 <0>         0.1033
     38 H2         -0.5450    1.8219   -0.8730 H         1 <0>         0.0804
     39 H3         -0.5280    1.8123    0.9069 H         1 <0>         0.0800
     40 H4          2.8601   -2.8279   -1.0547 H         1 <0>         0.0770
     41 H5          3.2716   -2.0434    0.4891 H         1 <0>         0.0962
     42 H6          2.4632   -3.6292    0.4844 H         1 <0>         0.0931
     43 H7         -4.3106   -1.4268    0.0144 H         1 <0>         0.2322
     44 H8         -3.9185   -3.9683   -0.4356 H         1 <0>         0.1440
     45 H9         -2.2367   -4.5267   -0.6025 H         1 <0>         0.1680
     46 H10        -4.4931   -7.2908    0.8788 H         1 <0>         0.1257
     47 H11        -4.1677   -5.9682   -0.2671 H         1 <0>         0.1172
     48 H12        -2.9261   -9.0596    1.2058 H         1 <0>         0.1413
     49 H13        -0.9313  -10.2664    0.3433 H         1 <0>         0.1380
     50 H14         0.5189   -9.1277   -1.3247 H         1 <0>         0.1392
     51 H15        -0.0599   -6.8529   -2.0688 H         1 <0>         0.1600
     52 H16        -4.3833   -9.7728    4.6429 H         1 <0>         0.1564
     53 H17        -4.2525  -10.0868    7.0510 H         1 <0>         0.1631
     54 H18        -2.8958   -6.0789    7.5679 H         1 <0>         0.1618
@<TRIPOS>BOND
     1    1    2 1
     2    1   37 1
     3    1   38 1
     4    1   39 1
     5    2    8 am
     6    2    3 1
     7    3   13 1
     8    3    4 2
     9    4    5 1
    10    4   11 1
    11    5    6 2
    12    5    7 am
    13    7    8 am
    14    7   10 1
    15    8    9 2
    16   10   40 1
    17   10   41 1
    18   10   42 1
    19   11   12 1
    20   11   14 1
    21   12   13 2
    22   12   43 1
    23   14   15 1
    24   14   44 1
    25   14   45 1
    26   15   16 2
    27   15   17 am
    28   17   18 1
    29   17   25 1
    30   18   19 1
    31   18   46 1
    32   18   47 1
    33   19   24 ar
    34   19   20 ar
    35   20   21 ar
    36   20   48 1
    37   21   22 ar
    38   21   49 1
    39   22   23 ar
    40   22   50 1
    41   23   24 ar
    42   23   51 1
    43   25   33 1
    44   25   26 2
    45   26   27 1
    46   27   32 ar
    47   27   28 ar
    48   28   29 ar
    49   28   52 1
    50   29   30 ar
    51   29   53 1
    52   30   31 ar
    53   30   34 1
    54   31   32 ar
    55   31   54 1
    56   32   33 1
    57   34   35 2
    58   34   36 1
@<TRIPOS>MOLECULE
ZINC01373894
   67    72     0     0     0
SMALL
USER_CHARGES

@<TRIPOS>ATOM
      1 C1         -0.1381    1.3465    1.0405 C.3       1 <0>        -0.1178
      2 C2         -0.0884   -0.1329    0.7576 C.ar      1 <0>        -0.0833
      3 C3          0.0094   -0.5845   -0.5452 C.ar      1 <0>        -0.1208
      4 C4          0.0549   -1.9415   -0.8047 C.ar      1 <0>        -0.0944
      5 C5          0.0031   -2.8469    0.2387 C.ar      1 <0>        -0.0902
      6 C6         -0.0937   -2.3952    1.5416 C.ar      1 <0>        -0.1139
      7 C7         -0.1349   -1.0381    1.8013 C.ar      1 <0>        -0.1197
      8 C8          0.0518   -4.3263   -0.0443 C.3       1 <0>         0.0967
      9 N1          1.4509   -4.7532   -0.1798 N.3       1 <0>        -0.5260
     10 C9          1.5345   -6.1664   -0.5717 C.3       1 <0>         0.1087
     11 C10         0.9716   -6.3370   -1.9592 C.2       1 <0>        -0.1832
     12 C11         1.8035   -6.3306   -3.0319 C.2       1 <0>         0.0128
     13 C12         1.2268   -6.4989   -4.3650 C.ar      1 <0>        -0.1250
     14 C13         2.0360   -6.4992   -5.5076 C.ar      1 <0>        -0.0500
     15 C14         1.4643   -6.6615   -6.7519 C.ar      1 <0>         0.0256
     16 C15         0.0816   -6.8264   -6.8751 C.ar      1 <0>         0.1146
     17 C16        -0.7265   -6.8251   -5.7510 C.ar      1 <0>        -0.1662
     18 C17        -0.1664   -6.6623   -4.4907 C.ar      1 <0>         0.1952
     19 N2         -0.9570   -6.6590   -3.3593 N.am      1 <0>        -0.6262
     20 H1         -1.9165   -6.7712   -3.4464 H         1 <0>         0.4175
     21 C18        -0.4159   -6.5084   -2.1379 C.2       1 <0>         0.5436
     22 O1         -1.1444   -6.5156   -1.1603 O.2       1 <0>        -0.5319
     23 O2         -0.4894   -6.9951   -8.0984 O.3       1 <0>        -0.3012
     24 C19         0.2968   -6.6189   -9.2339 C.3       1 <0>         0.0191
     25 C20         1.7070   -7.1973   -9.0563 C.3       1 <0>         0.0195
     26 O3          2.2649   -6.6565   -7.8539 O.3       1 <0>        -0.3035
     27 C21         2.1992   -4.5055    1.0598 C.3       1 <0>         0.1266
     28 C22         3.6755   -4.6474    0.7923 C.2       1 <0>         0.1876
     29 N3          4.4035   -5.7225    0.9716 N.2       1 <0>        -0.3016
     30 N4          5.6143   -5.4447    0.6296 N.2       1 <0>        -0.0808
     31 N5          5.6775   -4.2204    0.2368 N.2       1 <0>        -0.0746
     32 N6          4.5012   -3.6965    0.3173 N.pl3     1 <0>        -0.2860
     33 C23         4.1339   -2.3235   -0.0382 C.3       1 <0>         0.1031
     34 C24         4.4216   -1.3962    1.1444 C.3       1 <0>         0.0668
     35 H2          3.9204   -1.7696    2.0374 H         1 <0>         0.0867
     36 C25         3.9265    0.0304    0.8237 C.3       1 <0>        -0.1439
     37 C26         5.0476    0.9138    1.4359 C.3       1 <0>        -0.1547
     38 C27         6.2920    0.0252    1.1851 C.3       1 <0>         0.0468
     39 O4          5.8337   -1.3250    1.3736 O.3       1 <0>        -0.3644
     40 H3          0.8753    1.7252    1.1735 H         1 <0>         0.0701
     41 H4         -0.6112    1.8607    0.2040 H         1 <0>         0.0666
     42 H5         -0.7142    1.5236    1.9487 H         1 <0>         0.0666
     43 H6          0.0498    0.1228   -1.3603 H         1 <0>         0.1211
     44 H7          0.1306   -2.2944   -1.8226 H         1 <0>         0.1206
     45 H8         -0.1345   -3.1025    2.3567 H         1 <0>         0.1213
     46 H9         -0.2068   -0.6851    2.8195 H         1 <0>         0.1217
     47 H10        -0.4157   -4.8689    0.7774 H         1 <0>         0.0569
     48 H11        -0.4836   -4.5369   -0.9701 H         1 <0>         0.0961
     49 H12         2.5767   -6.4855   -0.5606 H         1 <0>         0.0946
     50 H13         0.9614   -6.7726    0.1299 H         1 <0>         0.0655
     51 H14         2.8683   -6.2036   -2.9034 H         1 <0>         0.1440
     52 H15         3.1045   -6.3723   -5.4148 H         1 <0>         0.1495
     53 H16        -1.7942   -6.9503   -5.8544 H         1 <0>         0.1473
     54 H17        -0.1534   -7.0204  -10.1417 H         1 <0>         0.1278
     55 H18         0.3510   -5.5322   -9.2995 H         1 <0>         0.0830
     56 H19         1.6520   -8.2833   -8.9800 H         1 <0>         0.0807
     57 H20         2.3284   -6.9190   -9.9075 H         1 <0>         0.1269
     58 H21         1.9897   -3.4966    1.4153 H         1 <0>         0.1065
     59 H22         1.8962   -5.2280    1.8177 H         1 <0>         0.0833
     60 H23         4.7174   -2.0032   -0.9014 H         1 <0>         0.1133
     61 H24         3.0723   -2.2828   -0.2818 H         1 <0>         0.1256
     62 H25         3.8563    0.1838   -0.2531 H         1 <0>         0.0843
     63 H26         2.9699    0.2270    1.3079 H         1 <0>         0.0912
     64 H27         5.1309    1.8642    0.9087 H         1 <0>         0.0886
     65 H28         4.8857    1.0710    2.5023 H         1 <0>         0.0811
     66 H29         6.6565    0.1632    0.1672 H         1 <0>         0.0646
     67 H30         7.0766    0.2614    1.9040 H         1 <0>         0.0893
@<TRIPOS>BOND
     1    1    2 1
     2    1   40 1
     3    1   41 1
     4    1   42 1
     5    2    7 ar
     6    2    3 ar
     7    3    4 ar
     8    3   43 1
     9    4    5 ar
    10    4   44 1
    11    5    6 ar
    12    5    8 1
    13    6    7 ar
    14    6   45 1
    15    7   46 1
    16    8    9 1
    17    8   47 1
    18    8   48 1
    19    9   10 1
    20    9   27 1
    21   10   11 1
    22   10   49 1
    23   10   50 1
    24   11   21 1
    25   11   12 2
    26   12   13 1
    27   12   51 1
    28   13   18 ar
    29   13   14 ar
    30   14   15 ar
    31   14   52 1
    32   15   26 1
    33   15   16 ar
    34   16   17 ar
    35   16   23 1
    36   17   18 ar
    37   17   53 1
    38   18   19 1
    39   19   20 1
    40   19   21 am
    41   21   22 2
    42   23   24 1
    43   24   25 1
    44   24   54 1
    45   24   55 1
    46   25   26 1
    47   25   56 1
    48   25   57 1
    49   27   28 1
    50   27   58 1
    51   27   59 1
    52   28   32 1
    53   28   29 2
    54   29   30 1
    55   30   31 2
    56   31   32 1
    57   32   33 1
    58   33   34 1
    59   33   60 1
    60   33   61 1
    61   34   35 1
    62   34   39 1
    63   34   36 1
    64   36   37 1
    65   36   62 1
    66   36   63 1
    67   37   38 1
    68   37   64 1
    69   37   65 1
    70   38   39 1
    71   38   66 1
    72   38   67 1
@<TRIPOS>MOLECULE
ZINC06236764
   51    53     0     0     0
SMALL
USER_CHARGES
N,N-dimethyl-3-[4-(4-nitrophenyl)piperazin-1-yl]carbonyl-benzenesulfonamide
@<TRIPOS>ATOM
      1 C1          1.2346    9.1621   -8.1317 C.3       1 <0>         0.0905
      2 N1          2.0139    9.5468   -6.9523 N.pl3     1 <0>        -1.0037
      3 C2          3.4489    9.2572   -6.8962 C.3       1 <0>         0.0824
      4 S1          1.2729   10.3092   -5.6827 S.o2      1 <0>         2.6898
      5 O1          0.1120   10.9380   -6.2082 O.2       1 <0>        -0.9464
      6 O2          2.2855   11.0314   -4.9955 O.2       1 <0>        -0.9465
      7 C3          0.7108    9.0560   -4.5789 C.ar      1 <0>        -0.6796
      8 C4         -0.5558    8.5198   -4.7305 C.ar      1 <0>         0.0009
      9 C5         -1.0047    7.5356   -3.8682 C.ar      1 <0>        -0.1382
     10 C6         -0.1890    7.0786   -2.8535 C.ar      1 <0>        -0.0399
     11 C7          1.0877    7.6186   -2.6921 C.ar      1 <0>        -0.1482
     12 C8          1.5346    8.6115   -3.5657 C.ar      1 <0>         0.0287
     13 C9          1.9654    7.1369   -1.6042 C.2       1 <0>         0.5643
     14 O3          2.5163    7.9337   -0.8699 O.2       1 <0>        -0.5170
     15 N2          2.1548    5.8144   -1.4267 N.am      1 <0>        -0.6122
     16 C10         3.0876    5.3158   -0.4047 C.3       1 <0>         0.1158
     17 C11         4.0402    4.3123   -1.0632 C.3       1 <0>         0.0299
     18 N3          3.2570    3.2753   -1.7481 N.pl3     1 <0>        -0.4850
     19 C12         2.4516    3.8470   -2.8355 C.3       1 <0>         0.0409
     20 C13         1.4338    4.8314   -2.2496 C.3       1 <0>         0.0991
     21 C14         4.0841    2.2542   -2.2214 C.ar      1 <0>         0.1657
     22 C15         3.5365    1.1736   -2.9013 C.ar      1 <0>        -0.1421
     23 C16         4.3573    0.1659   -3.3683 C.ar      1 <0>        -0.0256
     24 C17         5.7228    0.2319   -3.1602 C.ar      1 <0>        -0.0732
     25 C18         6.2711    1.3059   -2.4834 C.ar      1 <0>        -0.0216
     26 C19         5.4561    2.3166   -2.0129 C.ar      1 <0>        -0.1734
     27 N4          6.5993   -0.8497   -3.6626 N.pl3     1 <0>         0.0312
     28 O4          6.1178   -1.7965   -4.2586 O.2       1 <0>        -0.1625
     29 O5          7.8022   -0.7930   -3.4801 O.3       1 <0>        -0.1634
     30 H1          1.2421    9.9781   -8.8542 H         1 <0>         0.0650
     31 H2          1.6741    8.2728   -8.5834 H         1 <0>         0.0762
     32 H3          0.2076    8.9490   -7.8348 H         1 <0>         0.0725
     33 H4          3.8549    9.6143   -5.9498 H         1 <0>         0.0859
     34 H5          3.6059    8.1815   -6.9761 H         1 <0>         0.0628
     35 H6          3.9536    9.7602   -7.7210 H         1 <0>         0.0715
     36 H7         -1.1966    8.8709   -5.5259 H         1 <0>         0.1475
     37 H8         -1.9943    7.1212   -3.9919 H         1 <0>         0.1447
     38 H9         -0.5391    6.3073   -2.1835 H         1 <0>         0.1403
     39 H10         2.5229    9.0308   -3.4484 H         1 <0>         0.1474
     40 H11         2.5294    4.8228    0.3912 H         1 <0>         0.0844
     41 H12         3.6592    6.1479    0.0064 H         1 <0>         0.1077
     42 H13         4.6664    3.8504   -0.2998 H         1 <0>         0.1047
     43 H14         4.6702    4.8297   -1.7868 H         1 <0>         0.0613
     44 H15         3.1036    4.3709   -3.5344 H         1 <0>         0.0589
     45 H16         1.9256    3.0477   -3.3575 H         1 <0>         0.1029
     46 H17         0.7166    4.2918   -1.6311 H         1 <0>         0.0882
     47 H18         0.9092    5.3436   -3.0562 H         1 <0>         0.1035
     48 H19         2.4707    1.1239   -3.0683 H         1 <0>         0.1501
     49 H20         3.9322   -0.6745   -3.8970 H         1 <0>         0.1568
     50 H21         7.3380    1.3542   -2.3223 H         1 <0>         0.1555
     51 H22         5.8849    3.1550   -1.4841 H         1 <0>         0.1513
@<TRIPOS>BOND
     1    1    2 1
     2    1   30 1
     3    1   31 1
     4    1   32 1
     5    2    3 1
     6    2    4 1
     7    3   33 1
     8    3   34 1
     9    3   35 1
    10    4    5 2
    11    4    6 2
    12    4    7 1
    13    7   12 ar
    14    7    8 ar
    15    8    9 ar
    16    8   36 1
    17    9   10 ar
    18    9   37 1
    19   10   11 ar
    20   10   38 1
    21   11   12 ar
    22   11   13 1
    23   12   39 1
    24   13   14 2
    25   13   15 am
    26   15   20 1
    27   15   16 1
    28   16   17 1
    29   16   40 1
    30   16   41 1
    31   17   18 1
    32   17   42 1
    33   17   43 1
    34   18   19 1
    35   18   21 1
    36   19   20 1
    37   19   44 1
    38   19   45 1
    39   20   46 1
    40   20   47 1
    41   21   26 ar
    42   21   22 ar
    43   22   23 ar
    44   22   48 1
    45   23   24 ar
    46   23   49 1
    47   24   25 ar
    48   24   27 1
    49   25   26 ar
    50   25   50 1
    51   26   51 1
    52   27   28 2
    53   27   29 1
@<TRIPOS>MOLECULE
ZINC19656045
   50    53     0     0     0
SMALL
USER_CHARGES
[3-(4-fluorophenyl)isoxazol-5-yl]-(4-morpholinosulfonylpiperazin-1-yl)methanone
@<TRIPOS>ATOM
      1 C1         -4.1852   -0.1670   -6.7161 C.ar      1 <0>        -0.0619
      2 C2         -4.9340   -0.4155   -7.8479 C.ar      1 <0>        -0.1514
      3 C3         -5.5101    0.6349   -8.5442 C.ar      1 <0>         0.1157
      4 C4         -5.3415    1.9380   -8.1045 C.ar      1 <0>        -0.1525
      5 C5         -4.5982    2.1949   -6.9709 C.ar      1 <0>        -0.0587
      6 C6         -4.0171    1.1416   -6.2677 C.ar      1 <0>        -0.0406
      7 C7         -3.2162    1.4132   -5.0481 C.2       1 <0>         0.0619
      8 C8         -2.5589    0.4548   -4.2286 C.2       1 <0>        -0.1323
      9 C9         -1.9759    1.2085   -3.2496 C.2       1 <0>        -0.0829
     10 O1         -2.2867    2.4899   -3.5223 O.3       1 <0>         0.1188
     11 N1         -2.9696    2.5836   -4.5152 N.2       1 <0>        -0.3338
     12 C10        -1.1623    0.7167   -2.1215 C.2       1 <0>         0.6084
     13 O2         -0.8657   -0.4605   -2.0535 O.2       1 <0>        -0.5053
     14 N2         -0.7477    1.5723   -1.1662 N.am      1 <0>        -0.5977
     15 C11        -0.0414    1.0789    0.0244 C.3       1 <0>         0.0986
     16 C12        -0.7850    1.5631    1.2754 C.3       1 <0>         0.1022
     17 N3         -1.0352    3.0060    1.1430 N.pl3     1 <0>        -1.0073
     18 C13        -1.7414    3.4994   -0.0477 C.3       1 <0>         0.1041
     19 C14        -0.9941    3.0152   -1.2964 C.3       1 <0>         0.0781
     20 S1         -0.5263    4.0573    2.3170 S.o2      1 <0>         2.7811
     21 O3          0.5488    3.4207    2.9939 O.2       1 <0>        -0.9660
     22 O4         -0.3891    5.3268    1.6936 O.2       1 <0>        -0.9660
     23 N4         -1.7584    4.1995    3.4143 N.pl3     1 <0>        -1.0097
     24 C15        -2.7936    5.2341    3.2610 C.3       1 <0>         0.0840
     25 C16        -4.1686    4.5569    3.3774 C.3       1 <0>         0.0475
     26 O5         -4.2127    3.7891    4.5825 O.3       1 <0>        -0.3740
     27 C17        -3.2651    2.7197    4.6302 C.3       1 <0>         0.0474
     28 C18        -1.8469    3.2991    4.5749 C.3       1 <0>         0.0846
     29 F1         -6.2380    0.3877   -9.6552 F         1 <0>        -0.1333
     30 H1         -3.7330   -0.9859   -6.1763 H         1 <0>         0.1404
     31 H2         -5.0676   -1.4297   -8.1942 H         1 <0>         0.1450
     32 H3         -5.7922    2.7538   -8.6501 H         1 <0>         0.1437
     33 H4         -4.4667    3.2109   -6.6293 H         1 <0>         0.1408
     34 H5         -2.5293   -0.6179   -4.3503 H         1 <0>         0.1881
     35 H6         -0.0173   -0.0207    0.0070 H         1 <0>         0.1133
     36 H7          0.9874    1.4681    0.0280 H         1 <0>         0.0849
     37 H8         -1.7396    1.0242    1.3661 H         1 <0>         0.0789
     38 H9         -0.1689    1.3699    2.1660 H         1 <0>         0.1101
     39 H10        -2.7698    3.1090   -0.0521 H         1 <0>         0.0786
     40 H11        -1.7668    4.5990   -0.0296 H         1 <0>         0.1100
     41 H12        -0.0340    3.5444   -1.3866 H         1 <0>         0.0901
     42 H13        -1.6025    3.2039   -2.1932 H         1 <0>         0.1191
     43 H14        -2.6761    5.9903    4.0512 H         1 <0>         0.0850
     44 H15        -2.6900    5.7135    2.2764 H         1 <0>         0.0986
     45 H16        -4.9551    5.3256    3.3999 H         1 <0>         0.1093
     46 H17        -4.3263    3.8962    2.5122 H         1 <0>         0.0563
     47 H18        -3.3966    2.1547    5.5648 H         1 <0>         0.1094
     48 H19        -3.4239    2.0505    3.7718 H         1 <0>         0.0563
     49 H20        -1.1126    2.4874    4.4660 H         1 <0>         0.0984
     50 H21        -1.6350    3.8643    5.4945 H         1 <0>         0.0849
@<TRIPOS>BOND
     1    1    6 ar
     2    1    2 ar
     3    1   30 1
     4    2    3 ar
     5    2   31 1
     6    3    4 ar
     7    3   29 1
     8    4    5 ar
     9    4   32 1
    10    5    6 ar
    11    5   33 1
    12    6    7 1
    13    7   11 2
    14    7    8 1
    15    8    9 2
    16    8   34 1
    17    9   10 1
    18    9   12 1
    19   10   11 1
    20   12   13 2
    21   12   14 am
    22   14   19 1
    23   14   15 1
    24   15   16 1
    25   15   35 1
    26   15   36 1
    27   16   17 1
    28   16   37 1
    29   16   38 1
    30   17   18 1
    31   17   20 1
    32   18   19 1
    33   18   39 1
    34   18   40 1
    35   19   41 1
    36   19   42 1
    37   20   21 2
    38   20   22 2
    39   20   23 1
    40   23   28 1
    41   23   24 1
    42   24   25 1
    43   24   43 1
    44   24   44 1
    45   25   26 1
    46   25   45 1
    47   25   46 1
    48   26   27 1
    49   27   28 1
    50   27   47 1
    51   27   48 1
    52   28   49 1
    53   28   50 1
@<TRIPOS>MOLECULE
ZINC25524121
   58    62     0     0     0
SMALL
USER_CHARGES
5-[2-[4-(4-acetyl-2-fluoro-phenyl)piperazin-1-yl]-2-oxo-ethyl]-1-phenyl-pyrazolo[4,5-e]pyrimidin-4-one
@<TRIPOS>ATOM
      1 C1          0.1483   -4.1371   -9.9702 C.3       1 <0>        -0.2069
      2 C2         -0.6421   -4.1801   -8.6878 C.2       1 <0>         0.3961
      3 O1         -1.4245   -5.0853   -8.4877 O.2       1 <0>        -0.4503
      4 C3         -0.4654   -3.1270   -7.6812 C.ar      1 <0>        -0.1428
      5 C4         -1.1992   -3.1652   -6.4886 C.ar      1 <0>        -0.0614
      6 C5         -1.0340   -2.1854   -5.5522 C.ar      1 <0>        -0.1314
      7 C6         -0.1374   -1.1444   -5.7769 C.ar      1 <0>         0.0836
      8 C7          0.5945   -1.0931   -6.9633 C.ar      1 <0>         0.1172
      9 C8          0.4383   -2.0807   -7.9102 C.ar      1 <0>        -0.1053
     10 F1          1.4597   -0.0785   -7.1808 F         1 <0>        -0.1205
     11 N1          0.0248   -0.1501   -4.8187 N.pl3     1 <0>        -0.5016
     12 C9         -1.2415    0.5509   -4.5678 C.3       1 <0>         0.0451
     13 C10        -0.9846    1.7491   -3.6477 C.3       1 <0>         0.1158
     14 N2         -0.2884    1.2723   -2.4431 N.am      1 <0>        -0.6099
     15 C11         0.9188    0.4503   -2.6165 C.3       1 <0>         0.1067
     16 C12         0.5836   -0.7017   -3.5771 C.3       1 <0>         0.0441
     17 C13        -0.7416    1.5850   -1.2129 C.2       1 <0>         0.5042
     18 O2         -1.7359    2.2682   -1.0884 O.2       1 <0>        -0.5213
     19 C14        -0.0127    1.0858    0.0080 C.3       1 <0>         0.0729
     20 N3         -0.6984    1.5583    1.2133 N.am      1 <0>        -0.5292
     21 C15        -1.6810    0.8062    1.7704 C.2       1 <0>         0.4255
     22 N4         -2.3296    1.1653    2.8394 N.2       1 <0>        -0.5258
     23 C16        -2.0686    2.3191    3.4725 C.2       1 <0>         0.3403
     24 C17        -1.0673    3.1650    2.9692 C.2       1 <0>        -0.3327
     25 C18        -0.3455    2.7407    1.7699 C.2       1 <0>         0.5838
     26 O3          0.5374    3.4277    1.2874 O.2       1 <0>        -0.5099
     27 C19        -1.0054    4.2886    3.8147 C.2       1 <0>         0.1363
     28 N5         -1.8952    4.1431    4.7581 N.2       1 <0>        -0.2639
     29 N6         -2.5745    2.9316    4.5778 N.pl3     1 <0>        -0.3023
     30 C20        -3.5989    2.4359    5.3942 C.ar      1 <0>         0.1420
     31 C21        -4.6475    1.7169    4.8355 C.ar      1 <0>        -0.1080
     32 C22        -5.6537    1.2253    5.6439 C.ar      1 <0>        -0.1011
     33 C23        -5.6235    1.4578    7.0067 C.ar      1 <0>        -0.1151
     34 C24        -4.5832    2.1775    7.5654 C.ar      1 <0>        -0.1043
     35 C25        -3.5713    2.6672    6.7632 C.ar      1 <0>        -0.1055
     36 H1          0.7990   -3.2502   -9.9703 H         1 <0>         0.0850
     37 H2         -0.5422   -4.0854  -10.8249 H         1 <0>         0.1000
     38 H3          0.7650   -5.0443  -10.0514 H         1 <0>         0.1000
     39 H4         -1.8965   -3.9703   -6.3099 H         1 <0>         0.1416
     40 H5         -1.6014   -2.2179   -4.6338 H         1 <0>         0.1356
     41 H6          1.0066   -2.0464   -8.8280 H         1 <0>         0.1533
     42 H7         -1.6610    0.9029   -5.5218 H         1 <0>         0.0953
     43 H8         -1.9522   -0.1369   -4.0863 H         1 <0>         0.0500
     44 H9         -0.3619    2.4881   -4.1732 H         1 <0>         0.0835
     45 H10        -1.9438    2.2098   -3.3691 H         1 <0>         0.1034
     46 H11         1.7262    1.0685   -3.0358 H         1 <0>         0.0902
     47 H12         1.2326    0.0494   -1.6414 H         1 <0>         0.0948
     48 H13        -0.1538   -1.3699   -3.1083 H         1 <0>         0.0513
     49 H14         1.4981   -1.2683   -3.8065 H         1 <0>         0.0969
     50 H15         0.0022   -0.0141    0.0020 H         1 <0>         0.1314
     51 H16         1.0193    1.4665    0.0002 H         1 <0>         0.1373
     52 H17        -1.9361   -0.1343    1.3049 H         1 <0>         0.2123
     53 H18        -0.3357    5.1284    3.7017 H         1 <0>         0.2046
     54 H19        -4.6740    1.5389    3.7706 H         1 <0>         0.1353
     55 H20        -6.4671    0.6623    5.2106 H         1 <0>         0.1344
     56 H21        -6.4138    1.0762    7.6361 H         1 <0>         0.1309
     57 H22        -4.5622    2.3570    8.6302 H         1 <0>         0.1341
     58 H23        -2.7591    3.2292    7.2001 H         1 <0>         0.1343
@<TRIPOS>BOND
     1    1    2 1
     2    1   36 1
     3    1   37 1
     4    1   38 1
     5    2    3 2
     6    2    4 1
     7    4    9 ar
     8    4    5 ar
     9    5    6 ar
    10    5   39 1
    11    6    7 ar
    12    6   40 1
    13    7    8 ar
    14    7   11 1
    15    8    9 ar
    16    8   10 1
    17    9   41 1
    18   11   16 1
    19   11   12 1
    20   12   13 1
    21   12   42 1
    22   12   43 1
    23   13   14 1
    24   13   44 1
    25   13   45 1
    26   14   15 1
    27   14   17 am
    28   15   16 1
    29   15   46 1
    30   15   47 1
    31   16   48 1
    32   16   49 1
    33   17   18 2
    34   17   19 1
    35   19   20 1
    36   19   50 1
    37   19   51 1
    38   20   25 am
    39   20   21 1
    40   21   22 2
    41   21   52 1
    42   22   23 1
    43   23   29 1
    44   23   24 2
    45   24   25 1
    46   24   27 1
    47   25   26 2
    48   27   28 2
    49   27   53 1
    50   28   29 1
    51   29   30 1
    52   30   35 ar
    53   30   31 ar
    54   31   32 ar
    55   31   54 1
    56   32   33 ar
    57   32   55 1
    58   33   34 ar
    59   33   56 1
    60   34   35 ar
    61   34   57 1
    62   35   58 1
@<TRIPOS>MOLECULE
ZINC34676326
   65    68     0     0     0
SMALL
USER_CHARGES

@<TRIPOS>ATOM
      1 C1         -1.1804   -4.2360    2.4759 C.3       1 <0>        -0.1202
      2 C2         -0.8259   -3.6193    1.1473 C.ar      1 <0>        -0.0650
      3 C3         -0.8958   -4.3769   -0.0071 C.ar      1 <0>        -0.1230
      4 C4         -0.5707   -3.8113   -1.2255 C.ar      1 <0>        -0.1085
      5 C5         -0.1759   -2.4878   -1.2900 C.ar      1 <0>        -0.1286
      6 C6         -0.1069   -1.7302   -0.1361 C.ar      1 <0>        -0.1011
      7 C7         -0.4363   -2.2948    1.0822 C.ar      1 <0>        -0.1162
      8 C8         -0.3661   -1.4673    2.3398 C.3       1 <0>         0.1510
      9 N1         -1.7018   -0.9627    2.6675 N.am      1 <0>        -0.6049
     10 C9         -2.1969    0.2611    2.0570 C.3       1 <0>         0.1056
     11 C10        -3.0473    0.0201    0.8108 C.3       1 <0>        -0.1539
     12 C11        -4.0329   -1.1260    1.0683 C.3       1 <0>         0.1193
     13 N2         -4.6172   -0.9945    2.4048 N.pl3     1 <0>        -0.2655
     14 C12        -3.9126   -1.2188    3.5588 C.2       1 <0>        -0.0432
     15 C13        -4.7454   -1.0004    4.6049 C.2       1 <0>        -0.0985
     16 C14        -5.9799   -0.6405    4.0192 C.2       1 <0>        -0.0186
     17 N3         -5.8192   -0.6625    2.7072 N.2       1 <0>        -0.2237
     18 C15        -7.2234   -0.3009    4.7414 C.2       1 <0>         0.6137
     19 O1         -7.2791   -0.4282    5.9491 O.2       1 <0>        -0.5272
     20 N4         -8.2960    0.1500    4.0612 N.am      1 <0>        -0.5892
     21 C16        -8.2591    0.2207    2.5984 C.3       1 <0>         0.0788
     22 C17        -9.4989    0.5695    4.7847 C.3       1 <0>         0.0985
     23 C18        -9.4032    2.0379    5.1096 C.2       1 <0>         0.5006
     24 O2         -8.4265    2.6717    4.7702 O.2       1 <0>        -0.5275
     25 N5        -10.4031    2.6469    5.7773 N.am      1 <0>        -0.6152
     26 C19       -11.5937    1.8957    6.2033 C.3       1 <0>         0.1102
     27 C20       -11.8277    2.1594    7.6946 C.3       1 <0>         0.0370
     28 N6        -11.8908    3.6082    7.9285 N.3       1 <0>        -0.5432
     29 C21       -10.6164    4.2580    7.5945 C.3       1 <0>         0.0393
     30 C22       -10.3300    4.0790    6.1045 C.3       1 <0>         0.1171
     31 C23       -12.2842    3.9014    9.3131 C.3       1 <0>         0.0243
     32 C24        -2.4943   -1.6335    3.5393 C.2       1 <0>         0.5965
     33 O3         -2.0666   -2.5150    4.2599 O.2       1 <0>        -0.4914
     34 H1         -2.2221   -4.0179    2.7113 H         1 <0>         0.0711
     35 H2         -1.0378   -5.3154    2.4250 H         1 <0>         0.0619
     36 H3         -0.5378   -3.8208    3.2523 H         1 <0>         0.0804
     37 H4         -1.2042   -5.4107    0.0433 H         1 <0>         0.1221
     38 H5         -0.6246   -4.4032   -2.1273 H         1 <0>         0.1223
     39 H6          0.0788   -2.0460   -2.2420 H         1 <0>         0.1227
     40 H7          0.2018   -0.6965   -0.1864 H         1 <0>         0.1220
     41 H8          0.0008   -2.0839    3.1604 H         1 <0>         0.1028
     42 H9          0.3116   -0.6278    2.1849 H         1 <0>         0.0897
     43 H10        -2.7973    0.7990    2.7906 H         1 <0>         0.0781
     44 H11        -1.3452    0.8839    1.7832 H         1 <0>         0.0938
     45 H12        -3.6015    0.9271    0.5693 H         1 <0>         0.0926
     46 H13        -2.3989   -0.2406   -0.0256 H         1 <0>         0.0981
     47 H14        -4.8267   -1.0950    0.3219 H         1 <0>         0.1126
     48 H15        -3.5074   -2.0782    0.9955 H         1 <0>         0.0988
     49 H16        -4.5158   -1.0834    5.6570 H         1 <0>         0.1728
     50 H17        -8.5174   -0.7525    2.1809 H         1 <0>         0.0600
     51 H18        -8.9752    0.9661    2.2524 H         1 <0>         0.0673
     52 H19        -7.2572    0.5012    2.2733 H         1 <0>         0.0981
     53 H20       -10.3770    0.3912    4.1639 H         1 <0>         0.1122
     54 H21        -9.5850   -0.0022    5.7087 H         1 <0>         0.1170
     55 H22       -12.4604    2.2285    5.6322 H         1 <0>         0.0824
     56 H23       -11.4318    0.8301    6.0409 H         1 <0>         0.0891
     57 H24       -12.7671    1.7000    8.0022 H         1 <0>         0.0910
     58 H25       -11.0076    1.7331    8.2724 H         1 <0>         0.0422
     59 H26       -10.6773    5.3206    7.8294 H         1 <0>         0.0895
     60 H27        -9.8132    3.8025    8.1737 H         1 <0>         0.0398
     61 H28        -9.3330    4.4562    5.8767 H         1 <0>         0.0956
     62 H29       -11.0729    4.6257    5.5237 H         1 <0>         0.0763
     63 H30       -11.5547    3.4684    9.9975 H         1 <0>         0.0273
     64 H31       -12.3232    4.9809    9.4590 H         1 <0>         0.0711
     65 H32       -13.2667    3.4724    9.5103 H         1 <0>         0.0717
@<TRIPOS>BOND
     1    1    2 1
     2    1   34 1
     3    1   35 1
     4    1   36 1
     5    2    7 ar
     6    2    3 ar
     7    3    4 ar
     8    3   37 1
     9    4    5 ar
    10    4   38 1
    11    5    6 ar
    12    5   39 1
    13    6    7 ar
    14    6   40 1
    15    7    8 1
    16    8    9 1
    17    8   41 1
    18    8   42 1
    19    9   32 am
    20    9   10 1
    21   10   11 1
    22   10   43 1
    23   10   44 1
    24   11   12 1
    25   11   45 1
    26   11   46 1
    27   12   13 1
    28   12   47 1
    29   12   48 1
    30   13   17 1
    31   13   14 1
    32   14   15 2
    33   14   32 1
    34   15   16 1
    35   15   49 1
    36   16   17 2
    37   16   18 1
    38   18   19 2
    39   18   20 am
    40   20   21 1
    41   20   22 1
    42   21   50 1
    43   21   51 1
    44   21   52 1
    45   22   23 1
    46   22   53 1
    47   22   54 1
    48   23   24 2
    49   23   25 am
    50   25   30 1
    51   25   26 1
    52   26   27 1
    53   26   55 1
    54   26   56 1
    55   27   28 1
    56   27   57 1
    57   27   58 1
    58   28   29 1
    59   28   31 1
    60   29   30 1
    61   29   59 1
    62   29   60 1
    63   30   61 1
    64   30   62 1
    65   31   63 1
    66   31   64 1
    67   31   65 1
    68   32   33 2
@<TRIPOS>MOLECULE
ZINC45715312
   56    59     0     0     0
SMALL
USER_CHARGES

@<TRIPOS>ATOM
      1 C1         -0.4920    1.3217    0.1022 C.3       1 <0>        -0.1593
      2 C2         -0.0709   -0.1490    0.0752 C.3       1 <0>         0.1778
      3 H1          0.4448   -0.3621   -0.8611 H         1 <0>         0.1157
      4 C3         -1.2931   -1.0236    0.1860 C.ar      1 <0>        -0.0962
      5 C4         -2.0550   -1.0039    1.3395 C.ar      1 <0>        -0.0651
      6 C5         -3.1759   -1.8061    1.4411 C.ar      1 <0>        -0.1147
      7 C6         -3.5355   -2.6279    0.3891 C.ar      1 <0>        -0.0528
      8 C7         -2.7743   -2.6470   -0.7644 C.ar      1 <0>        -0.0451
      9 C8         -1.6555   -1.8414   -0.8677 C.ar      1 <0>        -0.0408
     10 N1         -3.1590   -3.5273   -1.8905 N.pl3     1 <0>         0.0314
     11 O1         -4.1390   -4.2296   -1.8013 O.2       1 <0>        -0.1542
     12 O2         -2.4932   -3.5439   -2.8995 O.3       1 <0>        -0.1546
     13 N2          0.8275   -0.4204    1.2002 N.am      1 <0>        -0.6094
     14 C9          0.4136   -0.0861    2.5652 C.3       1 <0>         0.0595
     15 C10         2.0346   -0.9776    0.9794 C.2       1 <0>         0.4983
     16 O3          2.3772   -1.2544   -0.1506 O.2       1 <0>        -0.5152
     17 C11         2.9587   -1.2568    2.1366 C.3       1 <0>         0.0985
     18 N3          4.1976   -1.8589    1.6380 N.am      1 <0>        -0.5997
     19 C12         4.2893   -3.2025    1.5240 C.2       1 <0>         0.5793
     20 O4          3.3529   -3.9034    1.8563 O.2       1 <0>        -0.5198
     21 C13         5.5196   -3.8223    0.9981 C.ar      1 <0>        -0.1701
     22 C14         5.8017   -5.1735    1.1738 C.ar      1 <0>        -0.0316
     23 C15         6.9634   -5.6990    0.6450 C.ar      1 <0>        -0.1445
     24 C16         7.8476   -4.8964   -0.0578 C.ar      1 <0>        -0.0616
     25 C17         7.5837   -3.5491   -0.2350 C.ar      1 <0>        -0.1374
     26 C18         6.4312   -3.0104    0.2937 C.ar      1 <0>         0.1977
     27 N4          6.0984   -1.6570    0.2023 N.am      1 <0>        -0.5632
     28 C19         5.3193   -0.9999    1.2634 C.3       1 <0>         0.3836
     29 C20         4.8355    0.3381    0.6967 C.3       1 <0>        -0.1405
     30 C21         5.5737    0.4596   -0.6498 C.3       1 <0>        -0.1446
     31 C22         6.3778   -0.8067   -0.7878 C.2       1 <0>         0.5312
     32 O5          7.1636   -1.0271   -1.6850 O.2       1 <0>        -0.4998
     33 C23         6.2139   -0.7562    2.4804 C.3       1 <0>        -0.1674
     34 H2          0.3920    1.9543    0.0221 H         1 <0>         0.0716
     35 H3         -1.1604    1.5236   -0.7348 H         1 <0>         0.0758
     36 H4         -1.0077    1.5348    1.0386 H         1 <0>         0.0654
     37 H5         -1.7741   -0.3619    2.1613 H         1 <0>         0.1457
     38 H6         -3.7707   -1.7912    2.3425 H         1 <0>         0.1504
     39 H7         -4.4110   -3.2553    0.4688 H         1 <0>         0.1552
     40 H8         -1.0628   -1.8535   -1.7704 H         1 <0>         0.1536
     41 H9         -0.1385   -0.9230    2.9928 H         1 <0>         0.0648
     42 H10         1.2956    0.1158    3.1731 H         1 <0>         0.0799
     43 H11        -0.2241    0.7977    2.5454 H         1 <0>         0.0830
     44 H12         3.1894   -0.3237    2.6506 H         1 <0>         0.1157
     45 H13         2.4745   -1.9438    2.8307 H         1 <0>         0.1239
     46 H14         5.1174   -5.8059    1.7198 H         1 <0>         0.1408
     47 H15         7.1857   -6.7471    0.7808 H         1 <0>         0.1357
     48 H16         8.7493   -5.3249   -0.4698 H         1 <0>         0.1372
     49 H17         8.2750   -2.9259   -0.7829 H         1 <0>         0.1433
     50 H18         3.7568    0.3198    0.5410 H         1 <0>         0.0990
     51 H19         5.1131    1.1572    1.3602 H         1 <0>         0.1052
     52 H20         4.8562    0.5498   -1.4654 H         1 <0>         0.1171
     53 H21         6.2401    1.3220   -0.6370 H         1 <0>         0.1155
     54 H22         6.6060   -1.7077    2.8395 H         1 <0>         0.0711
     55 H23         7.0414   -0.1052    2.1985 H         1 <0>         0.0815
     56 H24         5.6314   -0.2819    3.2703 H         1 <0>         0.0833
@<TRIPOS>BOND
     1    1    2 1
     2    1   34 1
     3    1   35 1
     4    1   36 1
     5    2    3 1
     6    2    4 1
     7    2   13 1
     8    4    9 ar
     9    4    5 ar
    10    5    6 ar
    11    5   37 1
    12    6    7 ar
    13    6   38 1
    14    7    8 ar
    15    7   39 1
    16    8    9 ar
    17    8   10 1
    18    9   40 1
    19   10   11 2
    20   10   12 1
    21   13   14 1
    22   13   15 am
    23   14   41 1
    24   14   42 1
    25   14   43 1
    26   15   16 2
    27   15   17 1
    28   17   18 1
    29   17   44 1
    30   17   45 1
    31   18   28 1
    32   18   19 am
    33   19   20 2
    34   19   21 1
    35   21   26 ar
    36   21   22 ar
    37   22   23 ar
    38   22   46 1
    39   23   24 ar
    40   23   47 1
    41   24   25 ar
    42   24   48 1
    43   25   26 ar
    44   25   49 1
    45   26   27 1
    46   27   31 am
    47   27   28 1
    48   28   29 1
    49   28   33 1
    50   29   30 1
    51   29   50 1
    52   29   51 1
    53   30   31 1
    54   30   52 1
    55   30   53 1
    56   31   32 2
    57   33   54 1
    58   33   55 1
    59   33   56 1
@<TRIPOS>MOLECULE
ZINC01077910
   66    70     0     0     0
SMALL
USER_CHARGES
ethyl 2-(ethoxycarbonylmethylsulfanyl-oxo-BLAHyl)acetate
@<TRIPOS>ATOM
      1 C1         -0.5370    7.9770   -4.8526 C.3       1 <0>        -0.1534
      2 C2         -0.3999    6.5543   -4.3068 C.3       1 <0>         0.0635
      3 O1         -0.3896    6.5917   -2.8553 O.3       1 <0>        -0.3503
      4 C3         -0.2746    5.4169   -2.2162 C.2       1 <0>         0.4452
      5 O2         -0.1854    4.3913   -2.8488 O.2       1 <0>        -0.4890
      6 C4         -0.2567    5.3771   -0.7099 C.3       1 <0>         0.1185
      7 N1         -0.1237    3.9898   -0.2597 N.pl3     1 <0>        -0.4766
      8 C5          1.0824    3.3685   -0.0345 C.2       1 <0>         0.2856
      9 C6          1.1573    1.9968    0.0017 C.2       1 <0>        -0.2460
     10 C7         -0.0144    1.2127    0.0087 C.2       1 <0>         0.5695
     11 O3          0.0021   -0.0041    0.0020 O.2       1 <0>        -0.4563
     12 N2         -1.2029    1.8560    0.0462 N.am      1 <0>        -0.4775
     13 C8         -1.2717    3.2298   -0.0696 C.2       1 <0>         0.4574
     14 N3         -2.5185    3.5804    0.0064 N.2       1 <0>        -0.3079
     15 N4         -3.2847    2.4158    0.1759 N.2       1 <0>        -0.2900
     16 C9         -2.4666    1.3840    0.1888 C.2       1 <0>         0.2128
     17 S1         -2.9391   -0.3045    0.3589 S.3       1 <0>         0.1471
     18 C10        -4.7464   -0.2422    0.5018 C.3       1 <0>        -0.1489
     19 C11        -5.2867   -1.6407    0.6548 C.2       1 <0>         0.4884
     20 O4         -4.5302   -2.5827    0.6662 O.2       1 <0>        -0.4886
     21 O5         -6.6084   -1.8398    0.7783 O.3       1 <0>        -0.3485
     22 C12        -7.0576   -3.2131    0.9219 C.3       1 <0>         0.0623
     23 C13        -8.5821   -3.2404    1.0486 C.3       1 <0>        -0.1542
     24 C14         2.5133    1.3339    0.0063 C.3       1 <0>         0.0302
     25 C15         2.4295   -0.0812   -0.5693 C.3       1 <0>        -0.1116
     26 C16         3.8326   -0.6998   -0.5854 C.3       1 <0>        -0.1235
     27 C17         4.3466   -0.7954    0.8528 C.3       1 <0>        -0.1209
     28 C18         4.4106    0.5996    1.4738 C.3       1 <0>        -0.1164
     29 C19         3.0309    1.2561    1.4452 C.3       1 <0>        -0.1073
     30 C20         3.4911    2.1523   -0.8438 C.3       1 <0>        -0.0870
     31 C21         3.5232    3.5701   -0.3355 C.ar      1 <0>        -0.0296
     32 C22         2.3275    4.1503    0.1003 C.ar      1 <0>        -0.0853
     33 C23         2.3634    5.4258    0.6551 C.ar      1 <0>        -0.0971
     34 C24         3.5432    6.1461    0.6590 C.ar      1 <0>        -0.1228
     35 C25         4.7062    5.5832    0.1676 C.ar      1 <0>        -0.0847
     36 C26         4.6972    4.2868   -0.3193 C.ar      1 <0>        -0.1150
     37 H1          0.3041    8.5800   -4.5106 H         1 <0>         0.0688
     38 H2         -0.5447    7.9489   -5.9422 H         1 <0>         0.0834
     39 H3         -1.4682    8.4156   -4.4939 H         1 <0>         0.0696
     40 H4          0.5313    6.1157   -4.6655 H         1 <0>         0.0724
     41 H5         -1.2410    5.9512   -4.6488 H         1 <0>         0.0727
     42 H6         -1.1859    5.7967   -0.3243 H         1 <0>         0.1505
     43 H7          0.5864    5.9612   -0.3410 H         1 <0>         0.1501
     44 H8         -5.0217    0.3511    1.3737 H         1 <0>         0.1404
     45 H9         -5.1663    0.2134   -0.3950 H         1 <0>         0.1402
     46 H10        -6.7554   -3.7876    0.0463 H         1 <0>         0.0747
     47 H11        -6.6108   -3.6500    1.8150 H         1 <0>         0.0748
     48 H12        -8.8842   -2.6659    1.9243 H         1 <0>         0.0686
     49 H13        -9.0288   -2.8035    0.1555 H         1 <0>         0.0685
     50 H14        -8.9193   -4.2713    1.1564 H         1 <0>         0.0835
     51 H15         1.8022   -0.7046    0.0703 H         1 <0>         0.0959
     52 H16         2.0307   -0.0522   -1.5791 H         1 <0>         0.0630
     53 H17         4.5026   -0.0836   -1.1787 H         1 <0>         0.0627
     54 H18         3.7783   -1.6995   -1.0177 H         1 <0>         0.0646
     55 H19         5.3425   -1.2400    0.8527 H         1 <0>         0.0617
     56 H20         3.6722   -1.4235    1.4369 H         1 <0>         0.0635
     57 H21         5.1240    1.2134    0.9248 H         1 <0>         0.0636
     58 H22         4.7450    0.5142    2.5115 H         1 <0>         0.0624
     59 H23         3.0988    2.2623    1.8615 H         1 <0>         0.0622
     60 H24         2.3364    0.6671    2.0474 H         1 <0>         0.0656
     61 H25         4.4859    1.7214   -0.7767 H         1 <0>         0.1010
     62 H26         3.1546    2.1456   -1.8790 H         1 <0>         0.0866
     63 H27         1.4809    5.8723    1.0882 H         1 <0>         0.1329
     64 H28         3.5569    7.1478    1.0622 H         1 <0>         0.1352
     65 H29         5.6221    6.1527    0.1645 H         1 <0>         0.1330
     66 H30         5.6107    3.8426   -0.6856 H         1 <0>         0.1356
@<TRIPOS>BOND
     1    1    2 1
     2    1   37 1
     3    1   38 1
     4    1   39 1
     5    2    3 1
     6    2   40 1
     7    2   41 1
     8    3    4 1
     9    4    5 2
    10    4    6 1
    11    6    7 1
    12    6   42 1
    13    6   43 1
    14    7   13 1
    15    7    8 1
    16    8   32 1
    17    8    9 2
    18    9   10 1
    19    9   24 1
    20   10   11 2
    21   10   12 am
    22   12   16 1
    23   12   13 1
    24   13   14 2
    25   14   15 1
    26   15   16 2
    27   16   17 1
    28   17   18 1
    29   18   19 1
    30   18   44 1
    31   18   45 1
    32   19   20 2
    33   19   21 1
    34   21   22 1
    35   22   23 1
    36   22   46 1
    37   22   47 1
    38   23   48 1
    39   23   49 1
    40   23   50 1
    41   24   29 1
    42   24   25 1
    43   24   30 1
    44   25   26 1
    45   25   51 1
    46   25   52 1
    47   26   27 1
    48   26   53 1
    49   26   54 1
    50   27   28 1
    51   27   55 1
    52   27   56 1
    53   28   29 1
    54   28   57 1
    55   28   58 1
    56   29   59 1
    57   29   60 1
    58   30   31 1
    59   30   61 1
    60   30   62 1
    61   31   36 ar
    62   31   32 ar
    63   32   33 ar
    64   33   34 ar
    65   33   63 1
    66   34   35 ar
    67   34   64 1
    68   35   36 ar
    69   35   65 1
    70   36   66 1
@<TRIPOS>MOLECULE
ZINC11573407
   56    58     0     0     0
SMALL
USER_CHARGES
[(4-chloro-3-methyl-phenyl)-(2-cyanoethyl)carbamoyl]methyl 2-(3,4-dimethoxyphenyl)thiazole-4-carboxylate
@<TRIPOS>ATOM
      1 C1         -4.8504   -9.2098   -1.7855 C.3       1 <0>        -0.1222
      2 C2         -4.3594   -8.2363   -0.7452 C.ar      1 <0>        -0.0628
      3 C3         -3.1007   -7.6793   -0.8609 C.ar      1 <0>        -0.1056
      4 C4         -2.6491   -6.7821    0.0976 C.ar      1 <0>         0.1463
      5 C5         -3.4626   -6.4512    1.1735 C.ar      1 <0>        -0.0997
      6 C6         -4.7221   -7.0069    1.2818 C.ar      1 <0>        -0.0928
      7 C7         -5.1699   -7.9010    0.3249 C.ar      1 <0>        -0.0346
      8 Cl1        -6.7515   -8.6024    0.4671 Cl        1 <0>        -0.0603
      9 N1         -1.3739   -6.2165   -0.0170 N.am      1 <0>        -0.5696
     10 C8         -0.1835   -7.0568    0.1354 C.3       1 <0>         0.1077
     11 C9          0.2392   -7.0806    1.6056 C.3       1 <0>        -0.0482
     12 C10         1.4352   -7.9248    1.7587 C.1       1 <0>         0.2010
     13 N2          2.3583   -8.5764    1.8769 N.1       1 <0>        -0.4147
     14 C11        -1.2411   -4.8989   -0.2676 C.2       1 <0>         0.5209
     15 O1         -2.2234   -4.2201   -0.4806 O.2       1 <0>        -0.4803
     16 C12         0.1279   -4.2691   -0.2832 C.3       1 <0>         0.0453
     17 O2          0.0053   -2.8518   -0.5739 O.3       1 <0>        -0.3076
     18 C13         1.1468   -2.1365   -0.6246 C.2       1 <0>         0.5465
     19 O3          2.2154   -2.6826   -0.4311 O.2       1 <0>        -0.4973
     20 C14         1.0992   -0.6946   -0.9142 C.2       1 <0>         0.0161
     21 C15         2.2565    0.0430   -0.9681 C.2       1 <0>        -0.1554
     22 S1          1.6427    1.6266   -1.3304 S.3       1 <0>         0.1136
     23 C16        -0.0915    1.2045   -1.3848 C.2       1 <0>         0.1520
     24 N3         -0.0611   -0.0900   -1.1262 N.2       1 <0>        -0.4497
     25 C17        -1.2557    2.0750   -1.6551 C.ar      1 <0>        -0.0243
     26 C18        -2.5441    1.5387   -1.6575 C.ar      1 <0>        -0.0542
     27 C19        -3.6293    2.3519   -1.9093 C.ar      1 <0>        -0.1756
     28 C20        -3.4436    3.7034   -2.1605 C.ar      1 <0>         0.1278
     29 C21        -2.1602    4.2449   -2.1595 C.ar      1 <0>         0.1023
     30 C22        -1.0688    3.4358   -1.9025 C.ar      1 <0>        -0.1464
     31 O4         -1.9811    5.5703   -2.4060 O.3       1 <0>        -0.3012
     32 C23        -0.6378    6.0576   -2.3893 C.3       1 <0>         0.0221
     33 O5         -4.5161    4.5011   -2.4077 O.3       1 <0>        -0.3009
     34 C24        -5.8032    3.8805   -2.3929 C.3       1 <0>         0.0222
     35 H1         -4.5743  -10.2231   -1.4939 H         1 <0>         0.0791
     36 H2         -5.9350   -9.1380   -1.8671 H         1 <0>         0.0769
     37 H3         -4.3971   -8.9724   -2.7479 H         1 <0>         0.0731
     38 H4         -2.4683   -7.9416   -1.6962 H         1 <0>         0.1364
     39 H5         -3.1120   -5.7570    1.9229 H         1 <0>         0.1349
     40 H6         -5.3566   -6.7470    2.1162 H         1 <0>         0.1403
     41 H7         -0.4100   -8.0708   -0.1941 H         1 <0>         0.1032
     42 H8          0.6275   -6.6509   -0.4693 H         1 <0>         0.0980
     43 H9          0.4656   -6.0665    1.9350 H         1 <0>         0.1124
     44 H10        -0.5719   -7.4864    2.2103 H         1 <0>         0.1196
     45 H11         0.7385   -4.7458   -1.0500 H         1 <0>         0.1079
     46 H12         0.5995   -4.4008    0.6906 H         1 <0>         0.1078
     47 H13         3.2777   -0.2770   -0.8230 H         1 <0>         0.2155
     48 H14        -2.6915    0.4868   -1.4619 H         1 <0>         0.1458
     49 H15        -4.6259    1.9356   -1.9106 H         1 <0>         0.1468
     50 H16        -0.0736    3.8551   -1.8970 H         1 <0>         0.1402
     51 H17        -0.6366    7.1270   -2.6003 H         1 <0>         0.1049
     52 H18        -0.1993    5.8805   -1.4072 H         1 <0>         0.0569
     53 H19        -0.0530    5.5370   -3.1476 H         1 <0>         0.0569
     54 H20        -5.8385    3.0989   -3.1518 H         1 <0>         0.0593
     55 H21        -5.9841    3.4424   -1.4114 H         1 <0>         0.0593
     56 H22        -6.5689    4.6269   -2.6043 H         1 <0>         0.1043
@<TRIPOS>BOND
     1    1    2 1
     2    1   35 1
     3    1   36 1
     4    1   37 1
     5    2    7 ar
     6    2    3 ar
     7    3    4 ar
     8    3   38 1
     9    4    5 ar
    10    4    9 1
    11    5    6 ar
    12    5   39 1
    13    6    7 ar
    14    6   40 1
    15    7    8 1
    16    9   10 1
    17    9   14 am
    18   10   11 1
    19   10   41 1
    20   10   42 1
    21   11   12 1
    22   11   43 1
    23   11   44 1
    24   12   13 3
    25   14   15 2
    26   14   16 1
    27   16   17 1
    28   16   45 1
    29   16   46 1
    30   17   18 1
    31   18   19 2
    32   18   20 1
    33   20   24 1
    34   20   21 2
    35   21   22 1
    36   21   47 1
    37   22   23 1
    38   23   24 2
    39   23   25 1
    40   25   30 ar
    41   25   26 ar
    42   26   27 ar
    43   26   48 1
    44   27   28 ar
    45   27   49 1
    46   28   29 ar
    47   28   33 1
    48   29   30 ar
    49   29   31 1
    50   30   50 1
    51   31   32 1
    52   32   51 1
    53   32   52 1
    54   32   53 1
    55   33   34 1
    56   34   54 1
    57   34   55 1
    58   34   56 1
@<TRIPOS>MOLECULE
ZINC09804790
   60    64     0     0     0
SMALL
USER_CHARGES

@<TRIPOS>ATOM
      1 C1          1.9758   -2.6496    3.5293 C.3       1 <0>        -0.1546
      2 C2          1.2415   -2.5975    2.1880 C.3       1 <0>        -0.1242
      3 C3          2.0686   -3.3236    1.1252 C.3       1 <0>        -0.1179
      4 C4          1.3344   -3.2714   -0.2161 C.3       1 <0>        -0.1198
      5 C5          2.1615   -3.9975   -1.2789 C.3       1 <0>         0.0561
      6 O1          1.4757   -3.9488   -2.5316 O.3       1 <0>        -0.3104
      7 C6          2.0796   -4.5521   -3.5897 C.ar      1 <0>         0.1477
      8 C7          3.3042   -5.1823   -3.4225 C.ar      1 <0>        -0.1986
      9 C8          3.9177   -5.7956   -4.4968 C.ar      1 <0>        -0.0547
     10 C9          3.3091   -5.7813   -5.7443 C.ar      1 <0>         0.0664
     11 C10         2.0839   -5.1506   -5.9112 C.ar      1 <0>        -0.0552
     12 C11         1.4685   -4.5422   -4.8351 C.ar      1 <0>        -0.1407
     13 N1          3.9325   -6.4041   -6.8366 N.am      1 <0>        -0.5201
     14 C12         4.4152   -5.7205   -7.8816 C.2       1 <0>         0.5304
     15 O2          4.3759   -4.5158   -8.0114 O.2       1 <0>        -0.4569
     16 C13         5.0180   -6.6899   -8.8750 C.3       1 <0>        -0.1287
     17 C14         4.7977   -8.0667   -8.2158 C.3       1 <0>        -0.1414
     18 H1          4.1664   -8.6958   -8.8433 H         1 <0>         0.1611
     19 C15         4.0986   -7.7301   -6.9167 C.2       1 <0>         0.5339
     20 O3          3.7429   -8.5340   -6.0819 O.2       1 <0>        -0.4319
     21 S1          6.3860   -8.8809   -7.8918 S.3       1 <0>         0.1031
     22 C16         5.9334  -10.4727   -7.2870 C.ar      1 <0>         0.2227
     23 N2          6.8827  -11.3340   -6.9442 N.ar      1 <0>        -0.4330
     24 C17         6.5396  -12.5386   -6.4861 C.ar      1 <0>         0.2645
     25 C18         5.1635  -12.8527   -6.3829 C.ar      1 <0>         0.1051
     26 N3          4.2675  -11.9387   -6.7452 N.ar      1 <0>        -0.1418
     27 N4          4.6479  -10.7878   -7.1769 N.ar      1 <0>        -0.2469
     28 C19         4.7305  -14.1703   -5.8831 C.2       1 <0>         0.0123
     29 C20         3.6224  -14.4151   -5.1308 C.2       1 <0>        -0.1350
     30 C21         3.5987  -15.8014   -4.8830 C.2       1 <0>        -0.2161
     31 C22         4.6807  -16.3299   -5.4887 C.2       1 <0>        -0.0084
     32 O4          5.3593  -15.3428   -6.0960 O.3       1 <0>        -0.1560
     33 C23         7.5680  -13.5185   -6.0973 C.2       1 <0>        -0.0053
     34 C24         8.7827  -13.6822   -6.6923 C.2       1 <0>        -0.1207
     35 C25         9.4350  -14.7204   -6.0023 C.2       1 <0>        -0.2200
     36 C26         8.5977  -15.1369   -5.0300 C.2       1 <0>         0.0018
     37 O5          7.4740  -14.4058   -5.0871 O.3       1 <0>        -0.1506
     38 H2          2.1169   -3.6889    3.8261 H         1 <0>         0.0542
     39 H3          2.9470   -2.1648    3.4309 H         1 <0>         0.0543
     40 H4          1.3865   -2.1324    4.2865 H         1 <0>         0.0557
     41 H5          0.2703   -3.0824    2.2864 H         1 <0>         0.0635
     42 H6          1.1003   -1.5583    1.8912 H         1 <0>         0.0636
     43 H7          3.0399   -2.8387    1.0268 H         1 <0>         0.0656
     44 H8          2.2098   -4.3628    1.4220 H         1 <0>         0.0655
     45 H9          0.3631   -3.7563   -0.1177 H         1 <0>         0.0752
     46 H10         1.1932   -2.2322   -0.5128 H         1 <0>         0.0754
     47 H11         3.1328   -3.5126   -1.3773 H         1 <0>         0.0648
     48 H12         2.3027   -5.0368   -0.9821 H         1 <0>         0.0645
     49 H13         3.7778   -5.1930   -2.4519 H         1 <0>         0.1369
     50 H14         4.8711   -6.2859   -4.3666 H         1 <0>         0.1290
     51 H15         1.6100   -5.1392   -6.8816 H         1 <0>         0.1351
     52 H16         0.5133   -4.0549   -4.9640 H         1 <0>         0.1420
     53 H17         4.4963   -6.6341   -9.8304 H         1 <0>         0.1458
     54 H18         6.0821   -6.4930   -9.0057 H         1 <0>         0.1340
     55 H19         2.9011  -13.6871   -4.7901 H         1 <0>         0.1575
     56 H20         2.8544  -16.3393   -4.3147 H         1 <0>         0.1576
     57 H21         4.9543  -17.3746   -5.4890 H         1 <0>         0.2111
     58 H22         9.1698  -13.1235   -7.5316 H         1 <0>         0.1593
     59 H23        10.4199  -15.1108   -6.2119 H         1 <0>         0.1597
     60 H24         8.7998  -15.9258   -4.3207 H         1 <0>         0.2133
@<TRIPOS>BOND
     1    1    2 1
     2    1   38 1
     3    1   39 1
     4    1   40 1
     5    2    3 1
     6    2   41 1
     7    2   42 1
     8    3    4 1
     9    3   43 1
    10    3   44 1
    11    4    5 1
    12    4   45 1
    13    4   46 1
    14    5    6 1
    15    5   47 1
    16    5   48 1
    17    6    7 1
    18    7   12 ar
    19    7    8 ar
    20    8    9 ar
    21    8   49 1
    22    9   10 ar
    23    9   50 1
    24   10   11 ar
    25   10   13 1
    26   11   12 ar
    27   11   51 1
    28   12   52 1
    29   13   19 am
    30   13   14 am
    31   14   15 2
    32   14   16 1
    33   16   17 1
    34   16   53 1
    35   16   54 1
    36   17   18 1
    37   17   19 1
    38   17   21 1
    39   19   20 2
    40   21   22 1
    41   22   27 ar
    42   22   23 ar
    43   23   24 ar
    44   24   25 ar
    45   24   33 1
    46   25   26 ar
    47   25   28 1
    48   26   27 ar
    49   28   32 1
    50   28   29 2
    51   29   30 1
    52   29   55 1
    53   30   31 2
    54   30   56 1
    55   31   32 1
    56   31   57 1
    57   33   37 1
    58   33   34 2
    59   34   35 1
    60   34   58 1
    61   35   36 2
    62   35   59 1
    63   36   37 1
    64   36   60 1
@<TRIPOS>MOLECULE
ZINC01133043
   58    61     0     0     0
SMALL
USER_CHARGES

@<TRIPOS>ATOM
      1 C1         -0.0178    1.4608    0.0101 C.3       1 <0>         0.0854
      2 N1          0.0021   -0.0041    0.0020 N.am      1 <0>        -0.5101
      3 C2         -1.1889   -0.7120    0.0039 C.2       1 <0>         0.3231
      4 C3         -1.1437   -2.1005   -0.0039 C.2       1 <0>        -0.1568
      5 C4          0.1107   -2.7476   -0.0134 C.2       1 <0>         0.5944
      6 O1          0.1765   -3.9638   -0.0207 O.2       1 <0>        -0.5119
      7 N2          1.2361   -2.0032   -0.0148 N.am      1 <0>        -0.5513
      8 C5          1.1776   -0.6603   -0.0127 C.2       1 <0>         0.7073
      9 O2          2.2126   -0.0219   -0.0196 O.2       1 <0>        -0.5319
     10 C6          2.5413   -2.6685   -0.0246 C.3       1 <0>         0.0836
     11 N3         -2.4557   -2.5297    0.0001 N.pl3     1 <0>        -0.4128
     12 C7         -3.2306   -1.4275    0.0098 C.2       1 <0>         0.2758
     13 N4         -2.4766   -0.3579    0.0120 N.2       1 <0>        -0.4896
     14 C8         -2.9179   -3.9199   -0.0060 C.3       1 <0>         0.0833
     15 C9         -2.9524   -4.4522    1.4280 C.3       1 <0>         0.0820
     16 H1         -1.9726   -4.3219    1.8875 H         1 <0>         0.0838
     17 C10        -3.3144   -5.9386    1.4117 C.3       1 <0>         0.0720
     18 O3         -3.2330   -6.4633    2.7384 O.3       1 <0>        -0.3732
     19 C11        -3.5539   -7.8524    2.8348 C.3       1 <0>         0.1048
     20 C12        -3.4361   -8.2968    4.2700 C.ar      1 <0>        -0.0809
     21 C13        -3.0694   -7.3898    5.2466 C.ar      1 <0>        -0.0832
     22 C14        -2.9613   -7.7973    6.5630 C.ar      1 <0>        -0.1152
     23 C15        -3.2198   -9.1121    6.9037 C.ar      1 <0>        -0.1070
     24 C16        -3.5865  -10.0197    5.9283 C.ar      1 <0>        -0.1093
     25 C17        -3.7004   -9.6111    4.6111 C.ar      1 <0>        -0.0329
     26 Cl1        -4.1674  -10.7491    3.3862 Cl        1 <0>        -0.0679
     27 O4         -3.9308   -3.7318    2.1801 O.3       1 <0>        -0.3625
     28 C18        -3.4210   -2.5665    2.8316 C.3       1 <0>         0.0981
     29 C19        -4.5324   -1.8887    3.5907 C.ar      1 <0>        -0.0803
     30 C20        -5.8061   -2.4258    3.5781 C.ar      1 <0>        -0.0838
     31 C21        -6.8255   -1.8043    4.2744 C.ar      1 <0>        -0.1151
     32 C22        -6.5721   -0.6450    4.9839 C.ar      1 <0>        -0.1059
     33 C23        -5.2993   -0.1070    4.9973 C.ar      1 <0>        -0.1083
     34 C24        -4.2770   -0.7320    4.3051 C.ar      1 <0>        -0.0302
     35 Cl2        -2.6763   -0.0604    4.3269 Cl        1 <0>        -0.0666
     36 H2          1.0048    1.8381    0.0023 H         1 <0>         0.1028
     37 H3         -0.5450    1.8219   -0.8730 H         1 <0>         0.0801
     38 H4         -0.5280    1.8123    0.9069 H         1 <0>         0.0796
     39 H5          2.8601   -2.8279   -1.0547 H         1 <0>         0.0770
     40 H6          3.2716   -2.0434    0.4891 H         1 <0>         0.0965
     41 H7          2.4632   -3.6292    0.4844 H         1 <0>         0.0953
     42 H8         -4.3106   -1.4268    0.0144 H         1 <0>         0.2280
     43 H9         -3.9185   -3.9683   -0.4356 H         1 <0>         0.1177
     44 H10        -2.2367   -4.5267   -0.6025 H         1 <0>         0.1188
     45 H11        -4.3296   -6.0612    1.0342 H         1 <0>         0.0676
     46 H12        -2.6193   -6.4748    0.7657 H         1 <0>         0.0735
     47 H13        -4.5740   -8.0147    2.4868 H         1 <0>         0.0709
     48 H14        -2.8638   -8.4284    2.2183 H         1 <0>         0.0699
     49 H15        -2.8670   -6.3628    4.9810 H         1 <0>         0.1404
     50 H16        -2.6744   -7.0884    7.3256 H         1 <0>         0.1300
     51 H17        -3.1348   -9.4299    7.9324 H         1 <0>         0.1330
     52 H18        -3.7881  -11.0468    6.1945 H         1 <0>         0.1356
     53 H19        -2.6305   -2.8543    3.5246 H         1 <0>         0.0667
     54 H20        -3.0189   -1.8802    2.0863 H         1 <0>         0.0698
     55 H21        -6.0047   -3.3312    3.0237 H         1 <0>         0.1414
     56 H22        -7.8205   -2.2241    4.2639 H         1 <0>         0.1304
     57 H23        -7.3692   -0.1595    5.5275 H         1 <0>         0.1328
     58 H24        -5.1015    0.7987    5.5514 H         1 <0>         0.1351
@<TRIPOS>BOND
     1    1    2 1
     2    1   36 1
     3    1   37 1
     4    1   38 1
     5    2    8 am
     6    2    3 1
     7    3   13 1
     8    3    4 2
     9    4    5 1
    10    4   11 1
    11    5    6 2
    12    5    7 am
    13    7    8 am
    14    7   10 1
    15    8    9 2
    16   10   39 1
    17   10   40 1
    18   10   41 1
    19   11   12 1
    20   11   14 1
    21   12   13 2
    22   12   42 1
    23   14   15 1
    24   14   43 1
    25   14   44 1
    26   15   16 1
    27   15   17 1
    28   15   27 1
    29   17   18 1
    30   17   45 1
    31   17   46 1
    32   18   19 1
    33   19   20 1
    34   19   47 1
    35   19   48 1
    36   20   25 ar
    37   20   21 ar
    38   21   22 ar
    39   21   49 1
    40   22   23 ar
    41   22   50 1
    42   23   24 ar
    43   23   51 1
    44   24   25 ar
    45   24   52 1
    46   25   26 1
    47   27   28 1
    48   28   29 1
    49   28   53 1
    50   28   54 1
    51   29   34 ar
    52   29   30 ar
    53   30   31 ar
    54   30   55 1
    55   31   32 ar
    56   31   56 1
    57   32   33 ar
    58   32   57 1
    59   33   34 ar
    60   33   58 1
    61   34   35 1
@<TRIPOS>MOLECULE
ZINC40015267
   64    68     0     0     0
SMALL
USER_CHARGES

@<TRIPOS>ATOM
      1 C1         -0.0187    1.5258    0.0104 C.3       1 <0>        -0.1545
      2 C2          0.0021   -0.0041    0.0020 C.3       1 <0>        -0.1240
      3 C3         -1.4333   -0.5336    0.0129 C.3       1 <0>        -0.1176
      4 C4         -1.4126   -2.0635    0.0045 C.3       1 <0>        -0.1185
      5 C5         -2.8479   -2.5931    0.0153 C.3       1 <0>         0.0564
      6 O1         -2.8286   -4.0219    0.0075 O.3       1 <0>        -0.2999
      7 C6         -4.0317   -4.6557    0.0156 C.ar      1 <0>         0.1206
      8 C7         -5.2049   -3.9184    0.0249 C.ar      1 <0>        -0.1708
      9 C8         -6.4271   -4.5643    0.0326 C.ar      1 <0>        -0.0903
     10 C9         -6.4825   -5.9457    0.0315 C.ar      1 <0>        -0.1061
     11 C10        -5.3158   -6.6873    0.0226 C.ar      1 <0>        -0.1371
     12 C11        -4.0875   -6.0461    0.0086 C.ar      1 <0>         0.1086
     13 O2         -2.9389   -6.7742   -0.0062 O.3       1 <0>        -0.3007
     14 C12        -3.0726   -8.1969   -0.0126 C.3       1 <0>         0.0515
     15 C13        -1.6842   -8.8395   -0.0292 C.3       1 <0>        -0.1520
     16 C14        -7.8176   -6.6447    0.0405 C.3       1 <0>         0.2423
     17 H1         -7.7090   -7.6665   -0.3232 H         1 <0>         0.1320
     18 C15        -8.3888   -6.6468    1.4204 C.2       1 <0>        -0.2370
     19 C16        -7.8921   -7.2297    2.6709 C.2       1 <0>         0.4600
     20 O3         -6.7717   -7.6926    2.7924 O.2       1 <0>        -0.4176
     21 C17        -8.8846   -7.2021    3.7750 C.ar      1 <0>        -0.1836
     22 C18        -8.6390   -7.8928    4.9615 C.ar      1 <0>        -0.0667
     23 C19        -9.5740   -7.8605    5.9745 C.ar      1 <0>         0.0834
     24 C20       -10.7532   -7.1427    5.8101 C.ar      1 <0>        -0.0857
     25 C21       -11.0038   -6.4567    4.6437 C.ar      1 <0>        -0.1009
     26 C22       -10.0725   -6.4725    3.6055 C.ar      1 <0>         0.1317
     27 O4        -10.3406   -5.7811    2.4738 O.3       1 <0>        -0.1736
     28 C23        -9.5730   -5.9662    1.3819 C.2       1 <0>         0.0988
     29 C24        -9.8028   -5.5166   -0.0015 C.2       1 <0>         0.5696
     30 O5        -10.7707   -4.8851   -0.3762 O.2       1 <0>        -0.4340
     31 N1         -8.7818   -5.9086   -0.7935 N.am      1 <0>        -0.5155
     32 C25        -8.6605   -5.6596   -2.1594 C.2       1 <0>         0.3537
     33 C26        -7.6461   -6.1563   -3.0087 C.2       1 <0>        -0.2914
     34 C27        -7.8776   -5.6940   -4.2500 C.2       1 <0>         0.0972
     35 O6         -8.9844   -4.9354   -4.2147 O.3       1 <0>        -0.0637
     36 N2         -9.4691   -4.9291   -2.8841 N.2       1 <0>        -0.3135
     37 C28        -7.0393   -5.9781   -5.4697 C.3       1 <0>        -0.0922
     38 F1         -9.3439   -8.5262    7.1274 F         1 <0>        -0.1254
     39 H2          1.0039    1.9031    0.0027 H         1 <0>         0.0556
     40 H3         -0.5459    1.8868   -0.8726 H         1 <0>         0.0542
     41 H4         -0.5289    1.8773    0.9072 H         1 <0>         0.0541
     42 H5          0.5123   -0.3556   -0.8948 H         1 <0>         0.0635
     43 H6          0.5293   -0.3651    0.8851 H         1 <0>         0.0634
     44 H7         -1.9435   -0.1821    0.9097 H         1 <0>         0.0651
     45 H8         -1.9605   -0.1726   -0.8702 H         1 <0>         0.0652
     46 H9         -0.9024   -2.4150   -0.8923 H         1 <0>         0.0750
     47 H10        -0.8854   -2.4246    0.8875 H         1 <0>         0.0750
     48 H11        -3.3581   -2.2415    0.9121 H         1 <0>         0.0622
     49 H12        -3.3751   -2.2320   -0.8677 H         1 <0>         0.0626
     50 H13        -5.1644   -2.8392    0.0265 H         1 <0>         0.1383
     51 H14        -7.3408   -3.9885    0.0399 H         1 <0>         0.1184
     52 H15        -5.3618   -7.7663    0.0222 H         1 <0>         0.1415
     53 H16        -3.6097   -8.5153    0.8809 H         1 <0>         0.0653
     54 H17        -3.6266   -8.5058   -0.8990 H         1 <0>         0.0612
     55 H18        -1.7862   -9.9247   -0.0340 H         1 <0>         0.0791
     56 H19        -1.1471   -8.5211   -0.9226 H         1 <0>         0.0665
     57 H20        -1.1302   -8.5306    0.8573 H         1 <0>         0.0671
     58 H21        -7.7219   -8.4493    5.0864 H         1 <0>         0.1602
     59 H22       -11.4816   -7.1235    6.6073 H         1 <0>         0.1593
     60 H23       -11.9251   -5.9045    4.5316 H         1 <0>         0.1608
     61 H24        -6.8275   -6.7955   -2.7124 H         1 <0>         0.1646
     62 H25        -7.4110   -6.8750   -5.9652 H         1 <0>         0.0991
     63 H26        -7.0980   -5.1331   -6.1557 H         1 <0>         0.0911
     64 H27        -6.0025   -6.1316   -5.1702 H         1 <0>         0.0982
@<TRIPOS>BOND
     1    1    2 1
     2    1   39 1
     3    1   40 1
     4    1   41 1
     5    2    3 1
     6    2   42 1
     7    2   43 1
     8    3    4 1
     9    3   44 1
    10    3   45 1
    11    4    5 1
    12    4   46 1
    13    4   47 1
    14    5    6 1
    15    5   48 1
    16    5   49 1
    17    6    7 1
    18    7   12 ar
    19    7    8 ar
    20    8    9 ar
    21    8   50 1
    22    9   10 ar
    23    9   51 1
    24   10   11 ar
    25   10   16 1
    26   11   12 ar
    27   11   52 1
    28   12   13 1
    29   13   14 1
    30   14   15 1
    31   14   53 1
    32   14   54 1
    33   15   55 1
    34   15   56 1
    35   15   57 1
    36   16   17 1
    37   16   31 1
    38   16   18 1
    39   18   28 2
    40   18   19 1
    41   19   20 2
    42   19   21 1
    43   21   26 ar
    44   21   22 ar
    45   22   23 ar
    46   22   58 1
    47   23   24 ar
    48   23   38 1
    49   24   25 ar
    50   24   59 1
    51   25   26 ar
    52   25   60 1
    53   26   27 1
    54   27   28 1
    55   28   29 1
    56   29   30 2
    57   29   31 am
    58   31   32 1
    59   32   36 2
    60   32   33 1
    61   33   34 2
    62   33   61 1
    63   34   35 1
    64   34   37 1
    65   35   36 1
    66   37   62 1
    67   37   63 1
    68   37   64 1
@<TRIPOS>MOLECULE
ZINC41026938
   60    63     0     0     0
SMALL
USER_CHARGES

@<TRIPOS>ATOM
      1 C1         -7.2057   -9.1273   -1.5172 C.3       1 <0>        -0.1514
      2 C2         -5.6991   -8.9479   -1.3200 C.3       1 <0>        -0.1234
      3 C3         -5.3253   -9.3173    0.1169 C.3       1 <0>         0.0647
      4 O1         -3.9182   -9.1497    0.3011 O.3       1 <0>        -0.3485
      5 C4         -3.4226   -9.4353    1.5212 C.2       1 <0>         0.5133
      6 O2         -4.1650   -9.8161    2.4046 O.2       1 <0>        -0.5049
      7 C5         -1.9795   -9.2855    1.7844 C.ar      1 <0>        -0.1559
      8 C6         -1.1245   -8.8420    0.7710 C.ar      1 <0>        -0.0200
      9 C7          0.2221   -8.7036    1.0208 C.ar      1 <0>        -0.1452
     10 C8          0.7324   -9.0047    2.2788 C.ar      1 <0>         0.1583
     11 C9         -0.1146   -9.4462    3.2894 C.ar      1 <0>        -0.2006
     12 C10        -1.4634   -9.5813    3.0496 C.ar      1 <0>        -0.0094
     13 O3          2.0602   -8.8678    2.5206 O.3       1 <0>        -0.2152
     14 C11         2.5366   -9.2850    3.7255 C.2       1 <0>        -0.0293
     15 C12         2.5431  -10.6708    4.0531 C.2       1 <0>         0.4118
     16 O4          2.1263  -11.5103    3.2727 O.2       1 <0>        -0.4201
     17 C13         3.0748  -11.0478    5.3741 C.ar      1 <0>        -0.2482
     18 C14         3.1239  -12.3803    5.7859 C.ar      1 <0>         0.0108
     19 C15         3.6234  -12.6890    7.0174 C.ar      1 <0>        -0.1616
     20 C16         4.0865  -11.6835    7.8687 C.ar      1 <0>         0.2144
     21 C17         4.0458  -10.3590    7.4733 C.ar      1 <0>        -0.1802
     22 C18         3.5380  -10.0278    6.2228 C.ar      1 <0>         0.1863
     23 O5          3.4856   -8.7432    5.8162 O.3       1 <0>        -0.1864
     24 C19         3.0107   -8.3896    4.6147 C.2       1 <0>         0.0554
     25 C20         3.0002   -6.9290    4.2439 C.3       1 <0>         0.5319
     26 F1          2.3115   -6.7589    3.0382 F         1 <0>        -0.1363
     27 F2          2.3638   -6.1966    5.2518 F         1 <0>        -0.1558
     28 F3          4.3156   -6.4756    4.0977 F         1 <0>        -0.1551
     29 C21         4.5495   -9.2653    8.3798 C.3       1 <0>         0.0954
     30 N1          4.6458   -9.7705    9.7565 N.3       1 <0>        -0.5477
     31 C22         5.3643  -11.0554    9.7755 C.3       1 <0>         0.2224
     32 O6          4.5744  -12.0290    9.0891 O.3       1 <0>        -0.2880
     33 C23         5.2989   -8.7891   10.6330 C.3       1 <0>         0.0598
     34 C24         4.3247   -7.6493   10.9374 C.3       1 <0>         0.0643
     35 O7          3.2035   -8.1612   11.6605 O.3       1 <0>        -0.3753
     36 C25         2.2280   -7.1725   11.9965 C.3       1 <0>         0.0302
     37 H1         -7.7426   -8.4796   -0.8242 H         1 <0>         0.0585
     38 H2         -7.4720   -8.8641   -2.5409 H         1 <0>         0.0662
     39 H3         -7.4758  -10.1660   -1.3272 H         1 <0>         0.0586
     40 H4         -5.1623   -9.5956   -2.0131 H         1 <0>         0.0749
     41 H5         -5.4290   -7.9091   -1.5101 H         1 <0>         0.0747
     42 H6         -5.8622   -8.6696    0.8100 H         1 <0>         0.0693
     43 H7         -5.5954  -10.3561    0.3070 H         1 <0>         0.0694
     44 H8         -1.5200   -8.6086   -0.2065 H         1 <0>         0.1522
     45 H9          0.8832   -8.3610    0.2385 H         1 <0>         0.1478
     46 H10         0.2857   -9.6790    4.2651 H         1 <0>         0.1278
     47 H11        -2.1213   -9.9196    3.8365 H         1 <0>         0.1451
     48 H12         2.7679  -13.1635    5.1329 H         1 <0>         0.1574
     49 H13         3.6607  -13.7200    7.3369 H         1 <0>         0.1535
     50 H14         5.5337   -8.9395    8.0432 H         1 <0>         0.0622
     51 H15         3.8590   -8.4225    8.3501 H         1 <0>         0.1039
     52 H16         6.3257  -10.9445    9.2740 H         1 <0>         0.0512
     53 H17         5.5208  -11.3720   10.8067 H         1 <0>         0.1321
     54 H18         5.5940   -9.2731   11.5640 H         1 <0>         0.0947
     55 H19         6.1824   -8.3890   10.1356 H         1 <0>         0.0638
     56 H20         4.8285   -6.8912   11.5371 H         1 <0>         0.0588
     57 H21         3.9822   -7.2048   10.0029 H         1 <0>         0.0503
     58 H22         1.4097   -7.6406   12.5436 H         1 <0>         0.0869
     59 H23         2.6883   -6.4045   12.6182 H         1 <0>         0.0400
     60 H24         1.8420   -6.7181   11.0840 H         1 <0>         0.0401
@<TRIPOS>BOND
     1    1    2 1
     2    1   37 1
     3    1   38 1
     4    1   39 1
     5    2    3 1
     6    2   40 1
     7    2   41 1
     8    3    4 1
     9    3   42 1
    10    3   43 1
    11    4    5 1
    12    5    6 2
    13    5    7 1
    14    7   12 ar
    15    7    8 ar
    16    8    9 ar
    17    8   44 1
    18    9   10 ar
    19    9   45 1
    20   10   11 ar
    21   10   13 1
    22   11   12 ar
    23   11   46 1
    24   12   47 1
    25   13   14 1
    26   14   24 2
    27   14   15 1
    28   15   16 2
    29   15   17 1
    30   17   22 ar
    31   17   18 ar
    32   18   19 ar
    33   18   48 1
    34   19   20 ar
    35   19   49 1
    36   20   32 1
    37   20   21 ar
    38   21   22 ar
    39   21   29 1
    40   22   23 1
    41   23   24 1
    42   24   25 1
    43   25   26 1
    44   25   27 1
    45   25   28 1
    46   29   30 1
    47   29   50 1
    48   29   51 1
    49   30   31 1
    50   30   33 1
    51   31   32 1
    52   31   52 1
    53   31   53 1
    54   33   34 1
    55   33   54 1
    56   33   55 1
    57   34   35 1
    58   34   56 1
    59   34   57 1
    60   35   36 1
    61   36   58 1
    62   36   59 1
    63   36   60 1
@<TRIPOS>MOLECULE
ZINC00876582
   51    54     0     0     0
SMALL
USER_CHARGES
2-[[5-[(4-chlorophenoxy)methyl]-4-phenyl-1,2,4-triazol-3-yl]sulfanyl]-N-(5-ethyl-1,3,4-thiadiazol-2-yl)acetamide
@<TRIPOS>ATOM
      1 C1         -0.0127    1.0858    0.0080 C.3       1 <0>        -0.1506
      2 C2         -0.7288    1.5792    1.2668 C.3       1 <0>        -0.0285
      3 C3          0.0000    1.0800    2.4877 C.2       1 <0>         0.0579
      4 N1          0.9812    1.6330    3.1725 N.2       1 <0>        -0.2451
      5 N2          1.4680    1.0526    4.1822 N.2       1 <0>        -0.2881
      6 C4          1.0225   -0.1216    4.5953 C.2       1 <0>         0.2608
      7 S1         -0.2261   -0.4276    3.4237 S.3       1 <0>         0.0273
      8 N3          1.4354   -0.8968    5.6736 N.am      1 <0>        -0.6069
      9 C5          2.4319   -0.4649    6.4717 C.2       1 <0>         0.5312
     10 O1          2.9686    0.5997    6.2494 O.2       1 <0>        -0.4486
     11 C6          2.8792   -1.3049    7.6402 C.3       1 <0>        -0.1522
     12 S2          4.2228   -0.4606    8.5108 S.3       1 <0>         0.1110
     13 C7          4.5408   -1.6299    9.7900 C.2       1 <0>         0.1555
     14 N4          3.9161   -2.7690    9.9799 N.2       1 <0>        -0.2871
     15 N5          4.4070   -3.3724   11.0028 N.2       1 <0>        -0.2459
     16 C8          5.3605   -2.6579   11.5305 C.2       1 <0>         0.1861
     17 N6          5.4816   -1.5204   10.7771 N.pl3     1 <0>        -0.4031
     18 C9          6.3817   -0.4635   10.9766 C.ar      1 <0>         0.0932
     19 C10         7.7469   -0.6793   10.8487 C.ar      1 <0>        -0.1030
     20 C11         8.6307    0.3646   11.0411 C.ar      1 <0>        -0.1036
     21 C12         8.1573    1.6212   11.3710 C.ar      1 <0>        -0.0962
     22 C13         6.7982    1.8379   11.5042 C.ar      1 <0>        -0.1008
     23 C14         5.9093    0.7990   11.3079 C.ar      1 <0>        -0.0922
     24 C15         6.1786   -3.0169   12.7441 C.3       1 <0>         0.1516
     25 O2          5.5376   -2.5118   13.9171 O.3       1 <0>        -0.3039
     26 C16         6.1502   -2.7509   15.1066 C.ar      1 <0>         0.1365
     27 C17         7.3406   -3.4622   15.1441 C.ar      1 <0>        -0.1969
     28 C18         7.9642   -3.7001   16.3536 C.ar      1 <0>        -0.0668
     29 C19         7.3968   -3.2387   17.5282 C.ar      1 <0>        -0.0709
     30 C20         6.2067   -2.5336   17.4933 C.ar      1 <0>        -0.0679
     31 C21         5.5829   -2.2891   16.2853 C.ar      1 <0>        -0.1346
     32 Cl1         8.1792   -3.5442   19.0474 Cl        1 <0>        -0.0666
     33 H1          0.0021   -0.0041    0.0020 H         1 <0>         0.0596
     34 H2          1.0099    1.4631    0.0003 H         1 <0>         0.0649
     35 H3         -0.5399    1.4469   -0.8751 H         1 <0>         0.0757
     36 H4         -0.7436    2.6691    1.2728 H         1 <0>         0.1085
     37 H5         -1.7514    1.2020    1.2746 H         1 <0>         0.0969
     38 H6          1.0061   -1.7483    5.8513 H         1 <0>         0.4334
     39 H7          2.0419   -1.4544    8.3218 H         1 <0>         0.1385
     40 H8          3.2310   -2.2714    7.2793 H         1 <0>         0.1383
     41 H9          8.1175   -1.6616   10.5954 H         1 <0>         0.1312
     42 H10         9.6928    0.1983   10.9377 H         1 <0>         0.1384
     43 H11         8.8504    2.4351   11.5247 H         1 <0>         0.1361
     44 H12         6.4313    2.8203   11.7624 H         1 <0>         0.1392
     45 H13         4.8478    0.9690   11.4118 H         1 <0>         0.1338
     46 H14         6.2657   -4.1010   12.8159 H         1 <0>         0.1070
     47 H15         7.1723   -2.5776   12.6554 H         1 <0>         0.0869
     48 H16         7.7818   -3.8261   14.2279 H         1 <0>         0.1374
     49 H17         8.8931   -4.2503   16.3828 H         1 <0>         0.1386
     50 H18         5.7655   -2.1739   18.4111 H         1 <0>         0.1427
     51 H19         4.6542   -1.7384   16.2584 H         1 <0>         0.1415
@<TRIPOS>BOND
     1    1    2 1
     2    1   33 1
     3    1   34 1
     4    1   35 1
     5    2    3 1
     6    2   36 1
     7    2   37 1
     8    3    7 1
     9    3    4 2
    10    4    5 1
    11    5    6 2
    12    6    7 1
    13    6    8 1
    14    8    9 am
    15    8   38 1
    16    9   10 2
    17    9   11 1
    18   11   12 1
    19   11   39 1
    20   11   40 1
    21   12   13 1
    22   13   17 1
    23   13   14 2
    24   14   15 1
    25   15   16 2
    26   16   17 1
    27   16   24 1
    28   17   18 1
    29   18   23 ar
    30   18   19 ar
    31   19   20 ar
    32   19   41 1
    33   20   21 ar
    34   20   42 1
    35   21   22 ar
    36   21   43 1
    37   22   23 ar
    38   22   44 1
    39   23   45 1
    40   24   25 1
    41   24   46 1
    42   24   47 1
    43   25   26 1
    44   26   31 ar
    45   26   27 ar
    46   27   28 ar
    47   27   48 1
    48   28   29 ar
    49   28   49 1
    50   29   30 ar
    51   29   32 1
    52   30   31 ar
    53   30   50 1
    54   31   51 1
@<TRIPOS>MOLECULE
ZINC17307520
   69    72     0     0     0
SMALL
USER_CHARGES
3-[(R)-(4-ethoxyphenyl)-[4-(2-pyridyl)piperazin-1-yl]methyl]-4-hydroxy-1-(2-methoxyethyl)-6-methyl-pyridin-2-one
@<TRIPOS>ATOM
      1 C1         -3.6274   12.5772    4.5440 C.3       1 <0>        -0.1537
      2 C2         -3.0671   11.6550    3.4593 C.3       1 <0>         0.0565
      3 O1         -1.8019   12.1520    3.0185 O.3       1 <0>        -0.3223
      4 C3         -1.1644   11.4436    2.0496 C.ar      1 <0>         0.1121
      5 C4          0.0677   11.8691    1.5747 C.ar      1 <0>        -0.1622
      6 C5          0.7136   11.1475    0.5895 C.ar      1 <0>        -0.0752
      7 C6          0.1328   10.0024    0.0765 C.ar      1 <0>        -0.0900
      8 C7         -1.0977    9.5794    0.5441 C.ar      1 <0>        -0.0389
      9 C8         -1.7448   10.2941    1.5335 C.ar      1 <0>        -0.2248
     10 C9          0.8393    9.2175   -0.9986 C.3       1 <0>         0.2480
     11 H1          1.9276    9.3525   -0.9132 H         1 <0>         0.0538
     12 C10         0.3636    9.6787   -2.3521 C.2       1 <0>        -0.4417
     13 C11         1.2206   10.3503   -3.2042 C.2       1 <0>         0.3282
     14 C12         0.7448   10.7636   -4.4646 C.2       1 <0>        -0.2595
     15 C13        -0.5340   10.5094   -4.8157 C.2       1 <0>         0.1401
     16 N1         -1.3720    9.8533   -3.9707 N.am      1 <0>        -0.5187
     17 C14        -0.9533    9.4379   -2.7609 C.2       1 <0>         0.5516
     18 O2         -1.7240    8.8501   -2.0181 O.2       1 <0>        -0.5736
     19 C15        -2.7537    9.5943   -4.3831 C.3       1 <0>         0.0950
     20 C16        -2.8088    8.3002   -5.1975 C.3       1 <0>         0.0487
     21 O3         -2.4502    7.1968   -4.3632 O.3       1 <0>        -0.3614
     22 C17        -2.4700    5.9332   -5.0303 C.3       1 <0>         0.0301
     23 C18        -1.0389   10.9598   -6.1623 C.3       1 <0>        -0.1270
     24 O4          2.4990   10.6032   -2.8350 O.3       1 <0>        -0.6981
     25 N2          0.5425    7.7879   -0.8362 N.3       1 <0>        -0.5113
     26 C19         1.0999    7.0048   -1.9478 C.3       1 <0>         0.0759
     27 C20         0.7022    5.5360   -1.7834 C.3       1 <0>         0.0232
     28 N3          1.1973    5.0387   -0.4922 N.pl3     1 <0>        -0.4666
     29 C21         0.6399    5.8218    0.6193 C.3       1 <0>         0.0619
     30 C22         1.0377    7.2906    0.4549 C.3       1 <0>         0.0422
     31 C23         0.9165    3.6860   -0.3386 C.ar      1 <0>         0.3720
     32 C24         1.3075    3.0283    0.8235 C.ar      1 <0>        -0.1539
     33 C25         1.0175    1.6835    0.9652 C.ar      1 <0>         0.0160
     34 C26         0.3527    1.0364   -0.0684 C.ar      1 <0>        -0.1611
     35 C27        -0.0057    1.7508   -1.1937 C.ar      1 <0>         0.1378
     36 N4          0.2798    3.0349   -1.2996 N.ar      1 <0>        -0.5105
     37 H2         -4.6013   12.1947    4.8833 H         1 <0>         0.0757
     38 H3         -3.7538   13.5903    4.1345 H         1 <0>         0.0658
     39 H4         -2.9298   12.6096    5.3939 H         1 <0>         0.0650
     40 H5         -2.9407   10.6419    3.8688 H         1 <0>         0.0570
     41 H6         -3.7646   11.6225    2.6094 H         1 <0>         0.0585
     42 H7          0.5215   12.7638    1.9746 H         1 <0>         0.1205
     43 H8          1.6728   11.4783    0.2195 H         1 <0>         0.1247
     44 H9         -1.5515    8.6873    0.1384 H         1 <0>         0.1464
     45 H10        -2.7037    9.9607    1.9018 H         1 <0>         0.1142
     46 H11         1.3997   11.2863   -5.1460 H         1 <0>         0.1188
     47 H12        -3.3898    9.4937   -3.4913 H         1 <0>         0.1023
     48 H13        -3.1155   10.4308   -4.9990 H         1 <0>         0.0915
     49 H14        -3.8285    8.1525   -5.5826 H         1 <0>         0.0542
     50 H15        -2.1047    8.3669   -6.0400 H         1 <0>         0.0491
     51 H16        -2.1838    5.1407   -4.3231 H         1 <0>         0.0722
     52 H17        -1.7588    5.9503   -5.8693 H         1 <0>         0.0367
     53 H18        -3.4826    5.7359   -5.4120 H         1 <0>         0.0373
     54 H19        -2.0939   10.6691   -6.2743 H         1 <0>         0.0676
     55 H20        -0.4417   10.4856   -6.9551 H         1 <0>         0.0780
     56 H21        -0.9496   12.0534   -6.2403 H         1 <0>         0.0803
     57 H22         0.7054    7.3881   -2.9004 H         1 <0>         0.1059
     58 H23         2.1965    7.0914   -1.9437 H         1 <0>         0.0426
     59 H24        -0.3937    5.4470   -1.8159 H         1 <0>         0.0801
     60 H25         1.1425    4.9434   -2.5989 H         1 <0>         0.0870
     61 H26        -0.4567    5.7352    0.6151 H         1 <0>         0.0769
     62 H27         1.0343    5.4385    1.5719 H         1 <0>         0.0978
     63 H28         2.1336    7.3805    0.4865 H         1 <0>         0.0443
     64 H29         0.5975    7.8841    1.2697 H         1 <0>         0.0992
     65 H30         1.8265    3.5617    1.6061 H         1 <0>         0.1799
     66 H31         1.3050    1.1477    1.8577 H         1 <0>         0.1718
     67 H32         0.1145   -0.0141    0.0096 H         1 <0>         0.1769
     68 H33        -0.5267    1.2525   -1.9978 H         1 <0>         0.2011
     69 H34        -0.0248    3.5645   -2.2144 H         1 <0>         0.4780
@<TRIPOS>BOND
     1    1    2 1
     2    1   37 1
     3    1   38 1
     4    1   39 1
     5    2    3 1
     6    2   40 1
     7    2   41 1
     8    3    4 1
     9    4    9 ar
    10    4    5 ar
    11    5    6 ar
    12    5   42 1
    13    6    7 ar
    14    6   43 1
    15    7    8 ar
    16    7   10 1
    17    8    9 ar
    18    8   44 1
    19    9   45 1
    20   10   11 1
    21   10   12 1
    22   10   25 1
    23   12   17 1
    24   12   13 2
    25   13   14 1
    26   13   24 1
    27   14   15 2
    28   14   46 1
    29   15   16 1
    30   15   23 1
    31   16   17 am
    32   16   19 1
    33   17   18 2
    34   19   20 1
    35   19   47 1
    36   19   48 1
    37   20   21 1
    38   20   49 1
    39   20   50 1
    40   21   22 1
    41   22   51 1
    42   22   52 1
    43   22   53 1
    44   23   54 1
    45   23   55 1
    46   23   56 1
    47   25   30 1
    48   25   26 1
    49   26   27 1
    50   26   57 1
    51   26   58 1
    52   27   28 1
    53   27   59 1
    54   27   60 1
    55   28   29 1
    56   28   31 1
    57   29   30 1
    58   29   61 1
    59   29   62 1
    60   30   63 1
    61   30   64 1
    62   31   36 ar
    63   31   32 ar
    64   32   33 ar
    65   32   65 1
    66   33   34 ar
    67   33   66 1
    68   34   35 ar
    69   34   67 1
    70   35   36 ar
    71   35   68 1
    72   36   69 1
@<TRIPOS>MOLECULE
ZINC24845246
   59    61     0     0     0
SMALL
USER_CHARGES
N-[4-(diethylsulfamoyl)phenyl]-2-[[4-(2,4-dimethylphenyl)-1,2,4-triazol-3-yl]sulfanyl]acetamide
@<TRIPOS>ATOM
      1 C1         13.1208    8.8171   -0.4346 C.3       1 <0>        -0.1772
      2 C2         11.7709    8.1993   -0.8047 C.3       1 <0>         0.1184
      3 N1         11.9145    6.7461   -0.9214 N.pl3     1 <0>        -0.9954
      4 C3         12.3722    6.1540   -2.1809 C.3       1 <0>         0.1062
      5 C4         11.1784    5.9641   -3.1187 C.3       1 <0>        -0.1792
      6 S1         11.5595    5.7726    0.3703 S.o2      1 <0>         2.6894
      7 O1         11.6992    6.5754    1.5344 O.2       1 <0>        -0.9533
      8 O2         12.2895    4.5678    0.1836 O.2       1 <0>        -0.9548
      9 C5          9.8528    5.3509    0.2513 C.ar      1 <0>        -0.6928
     10 C6          9.4686    4.2198   -0.4453 C.ar      1 <0>         0.0004
     11 C7          8.1317    3.8865   -0.5404 C.ar      1 <0>        -0.1445
     12 C8          7.1729    4.6887    0.0644 C.ar      1 <0>         0.2065
     13 C9          7.5616    5.8270    0.7583 C.ar      1 <0>        -0.1640
     14 C10         8.9006    6.1515    0.8550 C.ar      1 <0>        -0.0002
     15 N2          5.8176    4.3537   -0.0301 N.am      1 <0>        -0.6824
     16 C11         5.4418    3.0594   -0.0317 C.2       1 <0>         0.5387
     17 O3          6.2814    2.1842   -0.0360 O.2       1 <0>        -0.5013
     18 C12         3.9783    2.6997   -0.0283 C.3       1 <0>        -0.1589
     19 S2          3.7998    0.8985   -0.0315 S.3       1 <0>         0.0997
     20 C13         2.0429    0.7652   -0.0267 C.2       1 <0>         0.1433
     21 N3          1.1843    1.7585   -0.0222 N.2       1 <0>        -0.2910
     22 N4         -0.0161    1.2996   -0.0197 N.2       1 <0>        -0.2812
     23 C14         0.0014   -0.0033   -0.0224 C.2       1 <0>         0.1743
     24 N5          1.3147   -0.3928   -0.0270 N.pl3     1 <0>        -0.4106
     25 C15         1.8094   -1.7051   -0.0319 C.ar      1 <0>         0.0813
     26 C16         1.5763   -2.5323   -1.1222 C.ar      1 <0>        -0.0878
     27 C17         2.0652   -3.8239   -1.1244 C.ar      1 <0>        -0.1159
     28 C18         2.7863   -4.2936   -0.0418 C.ar      1 <0>        -0.0572
     29 C19         3.0201   -3.4721    1.0454 C.ar      1 <0>        -0.1101
     30 C20         2.5381   -2.1775    1.0509 C.ar      1 <0>        -0.0513
     31 C21         2.7986   -1.2807    2.2337 C.3       1 <0>        -0.1381
     32 C22         3.3189   -5.7033   -0.0475 C.3       1 <0>        -0.1238
     33 H1         13.0129    9.9083   -0.3470 H         1 <0>         0.0703
     34 H2         13.8579    8.5831   -1.2169 H         1 <0>         0.0604
     35 H3         13.4620    8.4040    0.5261 H         1 <0>         0.0646
     36 H4         11.0338    8.4333   -0.0224 H         1 <0>         0.0817
     37 H5         11.4296    8.6124   -1.7654 H         1 <0>         0.0815
     38 H6         13.1075    6.8215   -2.6539 H         1 <0>         0.0869
     39 H7         12.8389    5.1785   -1.9793 H         1 <0>         0.0954
     40 H8         11.5221    5.5195   -4.0643 H         1 <0>         0.0716
     41 H9         10.7118    6.9396   -3.3204 H         1 <0>         0.0615
     42 H10        10.4431    5.2966   -2.6456 H         1 <0>         0.0563
     43 H11        10.2147    3.5961   -0.9151 H         1 <0>         0.1430
     44 H12         7.8322    3.0028   -1.0843 H         1 <0>         0.1487
     45 H13         6.8180    6.4553    1.2260 H         1 <0>         0.1383
     46 H14         9.2039    7.0340    1.3986 H         1 <0>         0.1439
     47 H15         5.0588    5.1467   -0.1031 H         1 <0>         0.4457
     48 H16         3.5010    3.1139    0.8721 H         1 <0>         0.1351
     49 H17         3.4959    3.1176   -0.9242 H         1 <0>         0.1345
     50 H18        -0.8596   -0.6552   -0.0218 H         1 <0>         0.2249
     51 H19         1.0129   -2.1662   -1.9677 H         1 <0>         0.1322
     52 H20         1.8838   -4.4680   -1.9721 H         1 <0>         0.1360
     53 H21         3.5839   -3.8415    1.8892 H         1 <0>         0.1364
     54 H22         3.3872   -1.8270    2.9854 H         1 <0>         0.0785
     55 H23         1.8406   -0.9679    2.6746 H         1 <0>         0.0702
     56 H24         3.3581   -0.3927    1.9044 H         1 <0>         0.0894
     57 H25         3.8614   -5.8941    0.8902 H         1 <0>         0.0709
     58 H26         4.0023   -5.8336   -0.8995 H         1 <0>         0.0774
     59 H27         2.4817   -6.4112   -0.1373 H         1 <0>         0.0768
@<TRIPOS>BOND
     1    1    2 1
     2    1   33 1
     3    1   34 1
     4    1   35 1
     5    2    3 1
     6    2   36 1
     7    2   37 1
     8    3    4 1
     9    3    6 1
    10    4    5 1
    11    4   38 1
    12    4   39 1
    13    5   40 1
    14    5   41 1
    15    5   42 1
    16    6    7 2
    17    6    8 2
    18    6    9 1
    19    9   14 ar
    20    9   10 ar
    21   10   11 ar
    22   10   43 1
    23   11   12 ar
    24   11   44 1
    25   12   13 ar
    26   12   15 1
    27   13   14 ar
    28   13   45 1
    29   14   46 1
    30   15   16 am
    31   15   47 1
    32   16   17 2
    33   16   18 1
    34   18   19 1
    35   18   48 1
    36   18   49 1
    37   19   20 1
    38   20   24 1
    39   20   21 2
    40   21   22 1
    41   22   23 2
    42   23   24 1
    43   23   50 1
    44   24   25 1
    45   25   30 ar
    46   25   26 ar
    47   26   27 ar
    48   26   51 1
    49   27   28 ar
    50   27   52 1
    51   28   29 ar
    52   28   32 1
    53   29   30 ar
    54   29   53 1
    55   30   31 1
    56   31   54 1
    57   31   55 1
    58   31   56 1
    59   32   57 1
    60   32   58 1
    61   32   59 1
@<TRIPOS>MOLECULE
ZINC37510816
   60    63     0     0     0
SMALL
USER_CHARGES

@<TRIPOS>ATOM
      1 C1         -0.0187    1.5258    0.0104 C.3       1 <0>        -0.1512
      2 C2          0.0021   -0.0041    0.0020 C.3       1 <0>        -0.1090
      3 C3          0.7421   -0.5109    1.2415 C.3       1 <0>        -0.1458
      4 C4         -1.4333   -0.5336    0.0129 C.3       1 <0>         0.1211
      5 N1         -2.1054   -0.1483   -1.2305 N.am      1 <0>        -0.7182
      6 C5         -3.3867   -0.5081   -1.4434 C.2       1 <0>         0.6026
      7 O1         -3.9853   -1.1531   -0.6028 O.2       1 <0>        -0.5152
      8 C6         -4.0595   -0.1224   -2.6882 C.2       1 <0>        -0.0690
      9 C7         -5.3495   -0.4150   -3.0269 C.2       1 <0>        -0.1153
     10 C8         -5.5709    0.1455   -4.2946 C.2       1 <0>        -0.1948
     11 C9         -4.4209    0.7481   -4.6693 C.2       1 <0>        -0.0130
     12 O2         -3.5142    0.5888   -3.6966 O.3       1 <0>        -0.1501
     13 C10        -4.1970    1.4824   -5.9661 C.3       1 <0>         0.1854
     14 N2         -4.5469    2.8946   -5.7943 N.am      1 <0>        -0.5489
     15 C11        -5.8548    3.3393   -6.0378 C.ar      1 <0>         0.0859
     16 C12        -6.8972    2.4397   -6.1280 C.ar      1 <0>        -0.0663
     17 C13        -8.1956    2.9049   -6.3726 C.ar      1 <0>        -0.1577
     18 C14        -8.4268    4.2777   -6.5237 C.ar      1 <0>        -0.0609
     19 C15        -7.3803    5.1684   -6.4314 C.ar      1 <0>        -0.1150
     20 C16        -6.0937    4.7081   -6.1885 C.ar      1 <0>         0.1189
     21 O3         -5.0565    5.5796   -6.0933 O.3       1 <0>        -0.2945
     22 C17        -4.0037    5.2307   -5.1909 C.3       1 <0>         0.0519
     23 C18        -3.6163    3.7881   -5.3935 C.2       1 <0>         0.4892
     24 O4         -2.4729    3.4318   -5.2013 O.2       1 <0>        -0.4895
     25 C19        -9.3116    1.9553   -6.4708 C.2       1 <0>         0.4009
     26 O5         -9.1096    0.7664   -6.3401 O.2       1 <0>        -0.4197
     27 C20       -10.7077    2.4578   -6.7340 C.3       1 <0>         0.0116
     28 O6        -11.6105    1.3513   -6.7854 O.3       1 <0>        -0.2912
     29 C21       -12.9199    1.6335   -7.0166 C.ar      1 <0>         0.1325
     30 C22       -13.3260    2.9477   -7.1959 C.ar      1 <0>        -0.1990
     31 C23       -14.6572    3.2325   -7.4306 C.ar      1 <0>        -0.0682
     32 C24       -15.5854    2.2078   -7.4865 C.ar      1 <0>        -0.0720
     33 C25       -15.1823    0.8963   -7.3075 C.ar      1 <0>        -0.0682
     34 C26       -13.8510    0.6070   -7.0791 C.ar      1 <0>        -0.1347
     35 Cl1       -17.2578    2.5682   -7.7811 Cl        1 <0>        -0.0674
     36 H1          1.0039    1.9031    0.0027 H         1 <0>         0.0609
     37 H2         -0.5459    1.8868   -0.8726 H         1 <0>         0.0538
     38 H3         -0.5289    1.8773    0.9072 H         1 <0>         0.0586
     39 H4          0.5123   -0.3556   -0.8948 H         1 <0>         0.0783
     40 H5          0.2319   -0.1594    2.1383 H         1 <0>         0.0595
     41 H6          0.7568   -1.6008    1.2356 H         1 <0>         0.0594
     42 H7          1.7647   -0.1336    1.2338 H         1 <0>         0.0626
     43 H8         -1.4190   -1.6203    0.0965 H         1 <0>         0.0736
     44 H9         -1.9701   -0.1109    0.8621 H         1 <0>         0.0734
     45 H10        -1.6283    0.3658   -1.9006 H         1 <0>         0.4066
     46 H11        -6.0615   -0.9702   -2.4343 H         1 <0>         0.1652
     47 H12        -6.4878    0.1028   -4.8637 H         1 <0>         0.1632
     48 H13        -3.1489    1.4001   -6.2540 H         1 <0>         0.1196
     49 H14        -4.8229    1.0451   -6.7441 H         1 <0>         0.1262
     50 H15        -6.7129    1.3821   -6.0109 H         1 <0>         0.1488
     51 H16        -9.4269    4.6386   -6.7132 H         1 <0>         0.1455
     52 H17        -7.5612    6.2267   -6.5481 H         1 <0>         0.1526
     53 H18        -3.1403    5.8695   -5.3764 H         1 <0>         0.1535
     54 H19        -4.3441    5.3706   -4.1649 H         1 <0>         0.1054
     55 H20       -11.0073    3.1343   -5.9336 H         1 <0>         0.1032
     56 H21       -10.7294    2.9889   -7.6857 H         1 <0>         0.1034
     57 H22       -12.6019    3.7478   -7.1516 H         1 <0>         0.1378
     58 H23       -14.9738    4.2556   -7.5703 H         1 <0>         0.1381
     59 H24       -15.9083    0.0979   -7.3511 H         1 <0>         0.1425
     60 H25       -13.5360   -0.4172   -6.9441 H         1 <0>         0.1432
@<TRIPOS>BOND
     1    1    2 1
     2    1   36 1
     3    1   37 1
     4    1   38 1
     5    2    3 1
     6    2    4 1
     7    2   39 1
     8    3   40 1
     9    3   41 1
    10    3   42 1
    11    4    5 1
    12    4   43 1
    13    4   44 1
    14    5    6 am
    15    5   45 1
    16    6    7 2
    17    6    8 1
    18    8   12 1
    19    8    9 2
    20    9   10 1
    21    9   46 1
    22   10   11 2
    23   10   47 1
    24   11   12 1
    25   11   13 1
    26   13   14 1
    27   13   48 1
    28   13   49 1
    29   14   23 am
    30   14   15 1
    31   15   20 ar
    32   15   16 ar
    33   16   17 ar
    34   16   50 1
    35   17   18 ar
    36   17   25 1
    37   18   19 ar
    38   18   51 1
    39   19   20 ar
    40   19   52 1
    41   20   21 1
    42   21   22 1
    43   22   23 1
    44   22   53 1
    45   22   54 1
    46   23   24 2
    47   25   26 2
    48   25   27 1
    49   27   28 1
    50   27   55 1
    51   27   56 1
    52   28   29 1
    53   29   34 ar
    54   29   30 ar
    55   30   31 ar
    56   30   57 1
    57   31   32 ar
    58   31   58 1
    59   32   33 ar
    60   32   35 1
    61   33   34 ar
    62   33   59 1
    63   34   60 1
@<TRIPOS>MOLECULE
ZINC58915295
   64    66     0     0     0
SMALL
USER_CHARGES

@<TRIPOS>ATOM
      1 C1         -1.6407    1.7715    0.0713 C.3       1 <0>        -0.1527
      2 C2         -2.0174    0.3095    0.3198 C.3       1 <0>         0.0520
      3 O1         -1.1622   -0.5398   -0.4479 O.3       1 <0>        -0.3149
      4 C3         -1.3656   -1.8803   -0.3406 C.ar      1 <0>         0.1397
      5 C4         -2.3713   -2.3651    0.4823 C.ar      1 <0>        -0.2011
      6 C5         -2.5785   -3.7262    0.5918 C.ar      1 <0>        -0.0357
      7 C6         -1.7795   -4.6093   -0.1223 C.ar      1 <0>         0.0864
      8 C7         -0.7729   -4.1231   -0.9460 C.ar      1 <0>        -0.0785
      9 C8         -0.5708   -2.7615   -1.0587 C.ar      1 <0>        -0.1493
     10 N1         -1.9885   -5.9886   -0.0116 N.pl3     1 <0>        -0.9261
     11 C9         -0.9350   -6.8475    0.5350 C.3       1 <0>         0.1098
     12 C10        -1.0261   -6.8590    2.0392 C.2       1 <0>         0.5148
     13 O2         -1.8867   -6.2130    2.5997 O.2       1 <0>        -0.4862
     14 N2         -0.1517   -7.5868    2.7617 N.am      1 <0>        -0.5862
     15 N3         -0.2365   -7.5974    4.1601 N.2       1 <0>        -0.2502
     16 C11         0.6057   -8.2984    4.8561 C.2       1 <0>         0.1603
     17 C12         0.5165   -8.3096    6.3274 C.2       1 <0>        -0.1527
     18 C13         1.3870   -9.0374    7.2556 C.2       1 <0>        -0.1639
     19 C14         0.9441   -8.7599    8.4957 C.2       1 <0>         0.0255
     20 N4         -0.1287   -7.9198    8.4039 N.pl3     1 <0>        -0.4041
     21 C15        -0.3898   -7.6393    7.0983 C.2       1 <0>         0.0983
     22 C16        -1.4912   -6.7449    6.5903 C.3       1 <0>        -0.0911
     23 C17        -0.8512   -7.4165    9.4942 C.ar      1 <0>         0.1173
     24 C18        -2.1802   -7.7767    9.6741 C.ar      1 <0>        -0.1139
     25 C19        -2.8894   -7.2791   10.7495 C.ar      1 <0>        -0.1018
     26 C20        -2.2775   -6.4229   11.6468 C.ar      1 <0>        -0.1115
     27 C21        -0.9545   -6.0622   11.4701 C.ar      1 <0>        -0.0730
     28 C22        -0.2380   -6.5615   10.3998 C.ar      1 <0>        -0.1097
     29 C23        -0.2915   -5.1286   12.4499 C.3       1 <0>        -0.1170
     30 C24         1.5353   -9.2899    9.7765 C.3       1 <0>        -0.0856
     31 S1         -3.4265   -6.6499   -0.4984 S.o2      1 <0>         2.5995
     32 O3         -3.5939   -7.7980    0.3222 O.2       1 <0>        -0.9422
     33 O4         -4.3566   -5.5771   -0.4416 O.2       1 <0>        -0.9364
     34 C25        -3.1513   -7.1478   -2.2209 C.3       1 <0>        -0.6725
     35 H1         -2.2930    2.4193    0.6568 H         1 <0>         0.0795
     36 H2         -0.6047    1.9352    0.3678 H         1 <0>         0.0664
     37 H3         -1.7561    2.0014   -0.9879 H         1 <0>         0.0668
     38 H4         -1.9020    0.0796    1.3790 H         1 <0>         0.0638
     39 H5         -3.0534    0.1458    0.0232 H         1 <0>         0.0648
     40 H6         -2.9923   -1.6781    1.0379 H         1 <0>         0.1333
     41 H7         -3.3614   -4.1035    1.2329 H         1 <0>         0.1374
     42 H8         -0.1510   -4.8093   -1.5017 H         1 <0>         0.1349
     43 H9          0.2090   -2.3830   -1.7029 H         1 <0>         0.1361
     44 H10        -1.0598   -7.8617    0.1557 H         1 <0>         0.1180
     45 H11         0.0396   -6.4640    0.2330 H         1 <0>         0.1185
     46 H12         0.5363   -8.1032    2.3136 H         1 <0>         0.3825
     47 H13         1.3718   -8.8734    4.3571 H         1 <0>         0.1177
     48 H14         2.2207   -9.6726    6.9951 H         1 <0>         0.1481
     49 H15        -2.3916   -7.3361    6.4236 H         1 <0>         0.0747
     50 H16        -1.6975   -5.9684    7.3269 H         1 <0>         0.0588
     51 H17        -1.1810   -6.2832    5.6529 H         1 <0>         0.1055
     52 H18        -2.6587   -8.4449    8.9735 H         1 <0>         0.1288
     53 H19        -3.9232   -7.5585   10.8897 H         1 <0>         0.1330
     54 H20        -2.8342   -6.0350   12.4870 H         1 <0>         0.1298
     55 H21         0.7969   -6.2835   10.2652 H         1 <0>         0.1284
     56 H22         0.1634   -5.7082   13.2532 H         1 <0>         0.0749
     57 H23         0.4780   -4.5510   11.9378 H         1 <0>         0.0688
     58 H24        -1.0365   -4.4514   12.8676 H         1 <0>         0.0713
     59 H25         2.3084   -8.6075   10.1296 H         1 <0>         0.0717
     60 H26         0.7526   -9.3737   10.5306 H         1 <0>         0.0640
     61 H27         1.9723  -10.2720    9.5959 H         1 <0>         0.0822
     62 H28        -2.2546   -7.7644   -2.2820 H         1 <0>         0.1288
     63 H29        -4.0095   -7.7185   -2.5757 H         1 <0>         0.1321
     64 H30        -3.0245   -6.2597   -2.8399 H         1 <0>         0.1320
@<TRIPOS>BOND
     1    1    2 1
     2    1   35 1
     3    1   36 1
     4    1   37 1
     5    2    3 1
     6    2   38 1
     7    2   39 1
     8    3    4 1
     9    4    9 ar
    10    4    5 ar
    11    5    6 ar
    12    5   40 1
    13    6    7 ar
    14    6   41 1
    15    7    8 ar
    16    7   10 1
    17    8    9 ar
    18    8   42 1
    19    9   43 1
    20   10   11 1
    21   10   31 1
    22   11   12 1
    23   11   44 1
    24   11   45 1
    25   12   13 2
    26   12   14 am
    27   14   15 1
    28   14   46 1
    29   15   16 2
    30   16   17 1
    31   16   47 1
    32   17   21 2
    33   17   18 1
    34   18   19 2
    35   18   48 1
    36   19   20 1
    37   19   30 1
    38   20   21 1
    39   20   23 1
    40   21   22 1
    41   22   49 1
    42   22   50 1
    43   22   51 1
    44   23   28 ar
    45   23   24 ar
    46   24   25 ar
    47   24   52 1
    48   25   26 ar
    49   25   53 1
    50   26   27 ar
    51   26   54 1
    52   27   28 ar
    53   27   29 1
    54   28   55 1
    55   29   56 1
    56   29   57 1
    57   29   58 1
    58   30   59 1
    59   30   60 1
    60   30   61 1
    61   31   32 2
    62   31   33 2
    63   31   34 1
    64   34   62 1
    65   34   63 1
    66   34   64 1
@<TRIPOS>MOLECULE
ZINC10887695
   64    67     0     0     0
SMALL
USER_CHARGES
4-(diallylsulfamoyl)-N-(4-methylbenzothiazol-2-yl)-N-(tetrahydrofuran-2-ylmethyl)benzamide
@<TRIPOS>ATOM
      1 C1         -6.5978    1.8709    8.3161 C.3       1 <0>        -0.1128
      2 C2         -6.2346    3.2556    8.7870 C.ar      1 <0>        -0.0303
      3 C3         -6.8699    3.7888    9.8783 C.ar      1 <0>        -0.1141
      4 C4         -6.5661    5.0592   10.3450 C.ar      1 <0>        -0.0968
      5 C5         -5.6006    5.8066    9.6952 C.ar      1 <0>        -0.0699
      6 C6         -4.9593    5.2811    8.6018 C.ar      1 <0>        -0.1585
      7 C7         -5.2426    3.9907    8.0982 C.ar      1 <0>         0.0986
      8 N1         -4.5312    3.6173    7.0126 N.2       1 <0>        -0.5088
      9 C8         -3.6264    4.3924    6.4612 C.2       1 <0>         0.3688
     10 S1         -3.6968    5.8522    7.4899 S.3       1 <0>         0.0581
     11 N2         -2.8257    4.1444    5.3595 N.am      1 <0>        -0.5021
     12 C9         -1.8750    5.1605    4.9014 C.3       1 <0>         0.0928
     13 C10        -2.6067    6.1928    4.0412 C.3       1 <0>         0.0438
     14 H1         -3.1893    5.6951    3.2659 H         1 <0>         0.0795
     15 C11        -1.5984    7.1770    3.4080 C.3       1 <0>        -0.1498
     16 C12        -2.3308    8.5371    3.4399 C.3       1 <0>        -0.1530
     17 C13        -3.6950    8.2137    4.0886 C.3       1 <0>         0.0429
     18 O1         -3.4608    7.0176    4.8635 O.3       1 <0>        -0.3536
     19 C14        -2.9209    2.9682    4.7083 C.2       1 <0>         0.5510
     20 O2         -3.7889    2.1736    5.0125 O.2       1 <0>        -0.4466
     21 C15        -1.9698    2.6447    3.6243 C.ar      1 <0>        -0.0701
     22 C16        -1.3589    1.3903    3.5789 C.ar      1 <0>        -0.0815
     23 C17        -0.4724    1.0946    2.5641 C.ar      1 <0>        -0.0182
     24 C18        -0.1884    2.0380    1.5927 C.ar      1 <0>        -0.6570
     25 C19        -0.7862    3.2852    1.6349 C.ar      1 <0>        -0.0209
     26 C20        -1.6788    3.5919    2.6410 C.ar      1 <0>        -0.1256
     27 S2          0.9450    1.6521    0.3000 S.o2      1 <0>         2.6848
     28 O3          1.7867    0.6187    0.7930 O.2       1 <0>        -0.9467
     29 O4          1.4566    2.8899   -0.1746 O.2       1 <0>        -0.9450
     30 N3          0.0670    0.9957   -0.9412 N.pl3     1 <0>        -0.9857
     31 C21        -0.4894    1.8623   -1.9831 C.3       1 <0>         0.1500
     32 C22         0.4565    1.9096   -3.1554 C.2       1 <0>        -0.1782
     33 C23         0.0295    1.5999   -4.3545 C.2       1 <0>        -0.1709
     34 C24        -0.1532   -0.4515   -0.9974 C.3       1 <0>         0.1392
     35 C25        -1.4791   -0.7829   -0.3625 C.2       1 <0>        -0.1887
     36 C26        -2.3754   -1.4625   -1.0341 C.2       1 <0>        -0.1643
     37 H2         -5.9639    1.1390    8.8166 H         1 <0>         0.0720
     38 H3         -7.6425    1.6690    8.5527 H         1 <0>         0.0667
     39 H4         -6.4497    1.8032    7.2383 H         1 <0>         0.0771
     40 H5         -7.6240    3.2062   10.3867 H         1 <0>         0.1331
     41 H6         -7.0783    5.4607   11.2069 H         1 <0>         0.1381
     42 H7         -5.3524    6.7972   10.0466 H         1 <0>         0.1320
     43 H8         -1.4295    5.6564    5.7638 H         1 <0>         0.1054
     44 H9         -1.0917    4.6852    4.3109 H         1 <0>         0.1266
     45 H10        -0.6845    7.2213    4.0003 H         1 <0>         0.0851
     46 H11        -1.3754    6.8873    2.3811 H         1 <0>         0.0854
     47 H12        -1.7790    9.2538    4.0480 H         1 <0>         0.0801
     48 H13        -2.4677    8.9209    2.4289 H         1 <0>         0.0806
     49 H14        -4.0096    9.0308    4.7378 H         1 <0>         0.0965
     50 H15        -4.4457    8.0275    3.3207 H         1 <0>         0.0607
     51 H16        -1.5794    0.6531    4.3368 H         1 <0>         0.1462
     52 H17         0.0007    0.1244    2.5276 H         1 <0>         0.1520
     53 H18        -0.5568    4.0186    0.8761 H         1 <0>         0.1506
     54 H19        -2.1478    4.5643    2.6706 H         1 <0>         0.1454
     55 H20        -1.4518    1.4673   -2.3085 H         1 <0>         0.0884
     56 H21        -0.6252    2.8679   -1.5851 H         1 <0>         0.0906
     57 H22         1.4864    2.1987   -3.0068 H         1 <0>         0.1157
     58 H23        -1.0005    1.3108   -4.5030 H         1 <0>         0.0987
     59 H24         0.7073    1.6338   -5.1945 H         1 <0>         0.1021
     60 H25        -0.1565   -0.7785   -2.0372 H         1 <0>         0.0935
     61 H26         0.6452   -0.9618   -0.4587 H         1 <0>         0.1047
     62 H27        -1.6905   -0.4601    0.6462 H         1 <0>         0.1100
     63 H28        -2.1640   -1.7853   -2.0428 H         1 <0>         0.1007
     64 H29        -3.3256   -1.7000   -0.5791 H         1 <0>         0.1013
@<TRIPOS>BOND
     1    1    2 1
     2    1   37 1
     3    1   38 1
     4    1   39 1
     5    2    7 ar
     6    2    3 ar
     7    3    4 ar
     8    3   40 1
     9    4    5 ar
    10    4   41 1
    11    5    6 ar
    12    5   42 1
    13    6   10 1
    14    6    7 ar
    15    7    8 1
    16    8    9 2
    17    9   10 1
    18    9   11 1
    19   11   12 1
    20   11   19 am
    21   12   13 1
    22   12   43 1
    23   12   44 1
    24   13   14 1
    25   13   18 1
    26   13   15 1
    27   15   16 1
    28   15   45 1
    29   15   46 1
    30   16   17 1
    31   16   47 1
    32   16   48 1
    33   17   18 1
    34   17   49 1
    35   17   50 1
    36   19   20 2
    37   19   21 1
    38   21   26 ar
    39   21   22 ar
    40   22   23 ar
    41   22   51 1
    42   23   24 ar
    43   23   52 1
    44   24   25 ar
    45   24   27 1
    46   25   26 ar
    47   25   53 1
    48   26   54 1
    49   27   28 2
    50   27   29 2
    51   27   30 1
    52   30   31 1
    53   30   34 1
    54   31   32 1
    55   31   55 1
    56   31   56 1
    57   32   33 2
    58   32   57 1
    59   33   58 1
    60   33   59 1
    61   34   35 1
    62   34   60 1
    63   34   61 1
    64   35   36 2
    65   35   62 1
    66   36   63 1
    67   36   64 1
@<TRIPOS>MOLECULE
ZINC16461366
   57    60     0     0     0
SMALL
USER_CHARGES
2-[[4-(4-fluorophenyl)-5-(2-furyl)-1,2,4-triazol-3-yl]sulfanylmethyl]-N,N-dipropyl-thiazole-4-carboxamide
@<TRIPOS>ATOM
      1 C1         -0.6290   -2.0427    1.2974 C.3       1 <0>        -0.1411
      2 C2         -0.3813   -0.5337    1.3470 C.3       1 <0>        -0.1254
      3 C3         -0.4270    0.0374   -0.0717 C.3       1 <0>         0.1133
      4 N1         -0.1899    1.4823   -0.0243 N.am      1 <0>        -0.5962
      5 C4          1.1666    2.0081   -0.1974 C.3       1 <0>         0.1152
      6 C5          1.4253    2.2729   -1.6819 C.3       1 <0>        -0.1388
      7 C6          2.8418    2.8219   -1.8628 C.3       1 <0>        -0.1495
      8 C7         -1.2204    2.3283    0.1731 C.2       1 <0>         0.5904
      9 O1         -1.0406    3.5298    0.1149 O.2       1 <0>        -0.5331
     10 C8         -2.5640    1.7978    0.4593 C.2       1 <0>        -0.0082
     11 C9         -3.6530    2.6275    0.5437 C.2       1 <0>        -0.1581
     12 S1         -4.9242    1.4969    0.8851 S.3       1 <0>         0.1725
     13 C10        -3.9699    0.0492    0.9040 C.2       1 <0>         0.0485
     14 N2         -2.7661    0.4934    0.6514 N.2       1 <0>        -0.4406
     15 C11        -4.4169   -1.3689    1.1496 C.3       1 <0>        -0.0209
     16 S2         -4.3198   -1.7340    2.9198 S.3       1 <0>         0.0543
     17 C12        -4.8822   -3.4038    2.9190 C.2       1 <0>         0.1662
     18 N3         -5.2477   -4.1026    1.8678 N.2       1 <0>        -0.2746
     19 N4         -5.6022   -5.2856    2.2226 N.2       1 <0>        -0.2430
     20 C13        -5.4854   -5.4183    3.5262 C.2       1 <0>         0.2754
     21 N5         -5.0142   -4.2166    4.0127 N.pl3     1 <0>        -0.4116
     22 C14        -4.7325   -3.8941    5.3482 C.ar      1 <0>         0.0890
     23 C15        -3.7108   -4.5502    6.0210 C.ar      1 <0>        -0.0581
     24 C16        -3.4314   -4.2275    7.3345 C.ar      1 <0>        -0.1387
     25 C17        -4.1773   -3.2582    7.9839 C.ar      1 <0>         0.1250
     26 C18        -5.2003   -2.6063    7.3160 C.ar      1 <0>        -0.1384
     27 C19        -5.4788   -2.9223    6.0007 C.ar      1 <0>        -0.0652
     28 F1         -3.9062   -2.9478    9.2705 F         1 <0>        -0.1277
     29 C20        -5.7930   -6.6214    4.3143 C.2       1 <0>         0.0284
     30 C21        -5.9800   -7.8769    3.8183 C.2       1 <0>        -0.1271
     31 C22        -6.2464   -8.7124    4.9202 C.2       1 <0>        -0.2128
     32 C23        -6.2189   -7.9358    6.0216 C.2       1 <0>        -0.0097
     33 O2         -5.9448   -6.6735    5.6524 O.3       1 <0>        -0.1671
     34 H1         -0.5964   -2.4496    2.3081 H         1 <0>         0.0529
     35 H2         -1.6082   -2.2360    0.8594 H         1 <0>         0.0540
     36 H3          0.1412   -2.5176    0.6896 H         1 <0>         0.0498
     37 H4          0.5979   -0.3405    1.7851 H         1 <0>         0.0515
     38 H5         -1.1514   -0.0589    1.9548 H         1 <0>         0.0720
     39 H6         -1.4062   -0.1558   -0.5098 H         1 <0>         0.1017
     40 H7          0.3431   -0.4374   -0.6796 H         1 <0>         0.0681
     41 H8          1.2696    2.9385    0.3610 H         1 <0>         0.0832
     42 H9          1.8884    1.2801    0.1730 H         1 <0>         0.0788
     43 H10         1.3222    1.3425   -2.2403 H         1 <0>         0.0621
     44 H11         0.7034    3.0008   -2.0523 H         1 <0>         0.0668
     45 H12         3.0261    3.0106   -2.9204 H         1 <0>         0.0578
     46 H13         2.9449    3.7523   -1.3044 H         1 <0>         0.0571
     47 H14         3.5637    2.0940   -1.4924 H         1 <0>         0.0552
     48 H15        -3.7056    3.6999    0.4272 H         1 <0>         0.2117
     49 H16        -5.4454   -1.4897    0.8096 H         1 <0>         0.1290
     50 H17        -3.7701   -2.0538    0.6014 H         1 <0>         0.1349
     51 H18        -3.1320   -5.3096    5.5163 H         1 <0>         0.1396
     52 H19        -2.6339   -4.7349    7.8570 H         1 <0>         0.1506
     53 H20        -5.7809   -1.8506    7.8241 H         1 <0>         0.1517
     54 H21        -6.2770   -2.4139    5.4802 H         1 <0>         0.1436
     55 H22        -5.9311   -8.1741    2.7811 H         1 <0>         0.1633
     56 H23        -6.4403   -9.7744    4.8884 H         1 <0>         0.1603
     57 H24        -6.3895   -8.2725    7.0334 H         1 <0>         0.2124
@<TRIPOS>BOND
     1    1    2 1
     2    1   34 1
     3    1   35 1
     4    1   36 1
     5    2    3 1
     6    2   37 1
     7    2   38 1
     8    3    4 1
     9    3   39 1
    10    3   40 1
    11    4    5 1
    12    4    8 am
    13    5    6 1
    14    5   41 1
    15    5   42 1
    16    6    7 1
    17    6   43 1
    18    6   44 1
    19    7   45 1
    20    7   46 1
    21    7   47 1
    22    8    9 2
    23    8   10 1
    24   10   14 1
    25   10   11 2
    26   11   12 1
    27   11   48 1
    28   12   13 1
    29   13   14 2
    30   13   15 1
    31   15   16 1
    32   15   49 1
    33   15   50 1
    34   16   17 1
    35   17   21 1
    36   17   18 2
    37   18   19 1
    38   19   20 2
    39   20   21 1
    40   20   29 1
    41   21   22 1
    42   22   27 ar
    43   22   23 ar
    44   23   24 ar
    45   23   51 1
    46   24   25 ar
    47   24   52 1
    48   25   26 ar
    49   25   28 1
    50   26   27 ar
    51   26   53 1
    52   27   54 1
    53   29   33 1
    54   29   30 2
    55   30   31 1
    56   30   55 1
    57   31   32 2
    58   31   56 1
    59   32   33 1
    60   32   57 1
@<TRIPOS>MOLECULE
ZINC35041588
   64    67     0     0     0
SMALL
USER_CHARGES

@<TRIPOS>ATOM
      1 C1          0.1210    0.7456    0.8052 C.3       1 <0>        -0.1531
      2 C2          0.1302   -0.7543    0.5034 C.3       1 <0>        -0.1603
      3 C3          0.7332   -0.9920   -0.8825 C.3       1 <0>         0.1950
      4 H1          0.2212   -0.3664   -1.6137 H         1 <0>         0.1192
      5 C4          0.5695   -2.4418   -1.2597 C.2       1 <0>         0.4063
      6 N1          1.6329   -3.1251   -1.5573 N.2       1 <0>        -0.5038
      7 C5          1.5627   -4.4340   -1.9055 C.ar      1 <0>         0.1630
      8 C6          2.7062   -5.1693   -2.2252 C.ar      1 <0>        -0.1091
      9 C7          2.5885   -6.4961   -2.5728 C.ar      1 <0>        -0.0701
     10 C8          1.3455   -7.1146   -2.6100 C.ar      1 <0>        -0.1389
     11 C9          0.2030   -6.4106   -2.2989 C.ar      1 <0>        -0.0407
     12 C10         0.3000   -5.0664   -1.9443 C.ar      1 <0>        -0.1987
     13 C11        -0.8841   -4.2654   -1.6020 C.2       1 <0>         0.5516
     14 O1         -2.0008   -4.7499   -1.6160 O.2       1 <0>        -0.4982
     15 N2         -0.6841   -2.9697   -1.2657 N.am      1 <0>        -0.4875
     16 C12        -1.7791   -2.1634   -0.9254 C.ar      1 <0>         0.0733
     17 C13        -2.0771   -1.0401   -1.6853 C.ar      1 <0>        -0.0804
     18 C14        -3.1557   -0.2462   -1.3497 C.ar      1 <0>        -0.1336
     19 C15        -3.9414   -0.5704   -0.2531 C.ar      1 <0>         0.1463
     20 C16        -3.6438   -1.6924    0.5069 C.ar      1 <0>        -0.1934
     21 C17        -2.5695   -2.4908    0.1683 C.ar      1 <0>        -0.0513
     22 O2         -5.0030    0.2119    0.0772 O.3       1 <0>        -0.3104
     23 C18        -5.7684   -0.1810    1.2182 C.3       1 <0>         0.0518
     24 C19        -6.9122    0.8125    1.4318 C.3       1 <0>        -0.1537
     25 N3          2.1578   -0.6511   -0.8603 N.am      1 <0>        -0.5849
     26 C20         2.6869    0.3465   -1.7936 C.3       1 <0>         0.1222
     27 C21         2.6069    1.7348   -1.1557 C.3       1 <0>         0.0343
     28 O3          3.4698    1.7866   -0.0178 O.3       1 <0>        -0.3668
     29 C22         3.4696    3.0474    0.6548 C.3       1 <0>         0.0300
     30 C23         2.9816   -1.2551    0.0189 C.2       1 <0>         0.6258
     31 O4          4.1373   -0.8879    0.1210 O.2       1 <0>        -0.4910
     32 C24         2.4853   -2.3550    0.8524 C.2       1 <0>        -0.0501
     33 C25         3.1636   -2.9578    1.8726 C.2       1 <0>        -0.1255
     34 C26         2.3164   -3.9504    2.3896 C.2       1 <0>        -0.2110
     35 C27         1.1726   -3.9105    1.6713 C.2       1 <0>        -0.0290
     36 O5          1.2762   -2.9446    0.7493 O.3       1 <0>        -0.1595
     37 H2          1.1418    1.1270    0.7828 H         1 <0>         0.0676
     38 H3         -0.4769    1.2634    0.0552 H         1 <0>         0.0560
     39 H4         -0.3086    0.9149    1.7925 H         1 <0>         0.0602
     40 H5          0.7280   -1.2722    1.2534 H         1 <0>         0.0895
     41 H6         -0.8907   -1.1357    0.5257 H         1 <0>         0.0945
     42 H7          3.6781   -4.6991   -2.2002 H         1 <0>         0.1377
     43 H8          3.4739   -7.0631   -2.8201 H         1 <0>         0.1344
     44 H9          1.2739   -8.1564   -2.8855 H         1 <0>         0.1336
     45 H10        -0.7608   -6.8969   -2.3295 H         1 <0>         0.1368
     46 H11        -1.4652   -0.7872   -2.5385 H         1 <0>         0.1354
     47 H12        -3.3876    0.6275   -1.9406 H         1 <0>         0.1431
     48 H13        -4.2554   -1.9439    1.3608 H         1 <0>         0.1382
     49 H14        -2.3410   -3.3670    0.7568 H         1 <0>         0.1295
     50 H15        -6.1785   -1.1776    1.0549 H         1 <0>         0.0651
     51 H16        -5.1272   -0.1920    2.0996 H         1 <0>         0.0651
     52 H17        -6.5020    1.8091    1.5951 H         1 <0>         0.0677
     53 H18        -7.5533    0.8234    0.5505 H         1 <0>         0.0678
     54 H19        -7.4960    0.5127    2.3022 H         1 <0>         0.0806
     55 H20         3.7260    0.1123   -2.0251 H         1 <0>         0.0999
     56 H21         2.0985    0.3338   -2.7111 H         1 <0>         0.0940
     57 H22         2.9171    2.4866   -1.8814 H         1 <0>         0.0597
     58 H23         1.5815    1.9326   -0.8434 H         1 <0>         0.0557
     59 H24         3.7977    3.8264   -0.0333 H         1 <0>         0.0395
     60 H25         2.4621    3.2725    1.0047 H         1 <0>         0.0373
     61 H26         4.1489    3.0051    1.5062 H         1 <0>         0.0848
     62 H27         4.1592   -2.7173    2.2155 H         1 <0>         0.1584
     63 H28         2.5374   -4.6203    3.2074 H         1 <0>         0.1536
     64 H29         0.3148   -4.5499    1.8186 H         1 <0>         0.1960
@<TRIPOS>BOND
     1    1    2 1
     2    1   37 1
     3    1   38 1
     4    1   39 1
     5    2    3 1
     6    2   40 1
     7    2   41 1
     8    3    4 1
     9    3    5 1
    10    3   25 1
    11    5   15 1
    12    5    6 2
    13    6    7 1
    14    7   12 ar
    15    7    8 ar
    16    8    9 ar
    17    8   42 1
    18    9   10 ar
    19    9   43 1
    20   10   11 ar
    21   10   44 1
    22   11   12 ar
    23   11   45 1
    24   12   13 1
    25   13   14 2
    26   13   15 am
    27   15   16 1
    28   16   21 ar
    29   16   17 ar
    30   17   18 ar
    31   17   46 1
    32   18   19 ar
    33   18   47 1
    34   19   20 ar
    35   19   22 1
    36   20   21 ar
    37   20   48 1
    38   21   49 1
    39   22   23 1
    40   23   24 1
    41   23   50 1
    42   23   51 1
    43   24   52 1
    44   24   53 1
    45   24   54 1
    46   25   26 1
    47   25   30 am
    48   26   27 1
    49   26   55 1
    50   26   56 1
    51   27   28 1
    52   27   57 1
    53   27   58 1
    54   28   29 1
    55   29   59 1
    56   29   60 1
    57   29   61 1
    58   30   31 2
    59   30   32 1
    60   32   36 1
    61   32   33 2
    62   33   34 1
    63   33   62 1
    64   34   35 2
    65   34   63 1
    66   35   36 1
    67   35   64 1
@<TRIPOS>MOLECULE
ZINC36039784
   73    75     0     0     0
SMALL
USER_CHARGES

@<TRIPOS>ATOM
      1 C1          0.7936    1.9678   -0.0605 C.3       1 <0>        -0.1300
      2 C2          0.7577    0.4711   -0.2320 C.ar      1 <0>        -0.0639
      3 C3          0.8316   -0.0818   -1.4971 C.ar      1 <0>        -0.1197
      4 C4          0.7988   -1.4545   -1.6544 C.ar      1 <0>        -0.0993
      5 C5          0.6924   -2.2749   -0.5466 C.ar      1 <0>        -0.1226
      6 C6          0.6195   -1.7223    0.7181 C.ar      1 <0>        -0.0950
      7 C7          0.6566   -0.3492    0.8758 C.ar      1 <0>        -0.1035
      8 C8          0.5824    0.2531    2.2551 C.3       1 <0>        -0.5533
      9 S1         -1.1529    0.5490    2.6931 S.o2      1 <0>         2.5173
     10 O1         -1.6965    1.5748    1.8736 O.2       1 <0>        -0.9154
     11 O2         -1.8347   -0.6873    2.8540 O.2       1 <0>        -0.8971
     12 C9         -1.0992    1.2466    4.3102 C.2       1 <0>        -0.3398
     13 N1         -1.1297    0.5760    5.4293 N.2       1 <0>        -0.3885
     14 C10        -1.0708    1.4323    6.4599 C.2       1 <0>        -0.0110
     15 C11        -1.0012    2.6810    5.9606 C.2       1 <0>         0.0026
     16 N2         -1.0137    2.5635    4.5969 N.pl3     1 <0>        -0.3923
     17 C12        -0.9495    3.6615    3.6291 C.3       1 <0>         0.0891
     18 C13        -2.3680    4.0723    3.2291 C.3       1 <0>        -0.1112
     19 C14        -3.0947    4.6477    4.4464 C.3       1 <0>        -0.1600
     20 C15        -2.3005    5.1320    2.1275 C.3       1 <0>        -0.1428
     21 C16        -0.9192    3.9614    6.7512 C.3       1 <0>         0.1805
     22 N3         -0.3219    3.6892    8.0609 N.am      1 <0>        -0.6064
     23 C17         1.1353    3.6656    8.2107 C.3       1 <0>         0.1039
     24 C18         1.6450    5.0859    8.4636 C.3       1 <0>         0.0657
     25 H1          1.2936    5.7507    7.6745 H         1 <0>         0.0767
     26 C19         3.1883    5.0893    8.5025 C.3       1 <0>        -0.1497
     27 C20         3.4869    6.0912    9.6510 C.3       1 <0>        -0.1559
     28 C21         2.2950    5.8130   10.6012 C.3       1 <0>         0.0510
     29 O3          1.1771    5.5510    9.7350 O.3       1 <0>        -0.3623
     30 C22        -1.1128    3.4605    9.1279 C.2       1 <0>         0.5222
     31 O4         -0.6183    3.2352   10.2122 O.2       1 <0>        -0.5075
     32 C23        -2.6117    3.4848    8.9738 C.3       1 <0>        -0.1411
     33 C24        -3.2681    3.1969   10.3255 C.3       1 <0>        -0.0794
     34 C25        -2.9433    4.3294   11.3017 C.3       1 <0>        -0.1529
     35 C26        -4.7843    3.0980   10.1454 C.3       1 <0>        -0.1493
     36 H2          1.8270    2.2962    0.0502 H         1 <0>         0.0765
     37 H3          0.3527    2.4445   -0.9361 H         1 <0>         0.0790
     38 H4          0.2269    2.2454    0.8282 H         1 <0>         0.0700
     39 H5          0.9147    0.5591   -2.3624 H         1 <0>         0.1305
     40 H6          0.8558   -1.8863   -2.6427 H         1 <0>         0.1297
     41 H7          0.6660   -3.3476   -0.6696 H         1 <0>         0.1316
     42 H8          0.5360   -2.3631    1.5834 H         1 <0>         0.1337
     43 H9          1.0270   -0.4332    2.9758 H         1 <0>         0.1510
     44 H10         1.1267    1.1974    2.2690 H         1 <0>         0.1427
     45 H11        -1.0779    1.1669    7.5068 H         1 <0>         0.1765
     46 H12        -0.4378    4.5125    4.0786 H         1 <0>         0.1018
     47 H13        -0.4029    3.3346    2.7446 H         1 <0>         0.1022
     48 H14        -2.9089    3.2003    2.8617 H         1 <0>         0.0987
     49 H15        -4.1052    4.9405    4.1614 H         1 <0>         0.0668
     50 H16        -3.1428    3.8928    5.2312 H         1 <0>         0.0541
     51 H17        -2.5537    5.5198    4.8137 H         1 <0>         0.0583
     52 H18        -1.7828    4.7220    1.2603 H         1 <0>         0.0656
     53 H19        -3.3111    5.4247    1.8425 H         1 <0>         0.0653
     54 H20        -1.7596    6.0041    2.4949 H         1 <0>         0.0554
     55 H21        -0.3028    4.6817    6.2133 H         1 <0>         0.0918
     56 H22        -1.9208    4.3696    6.8864 H         1 <0>         0.1088
     57 H23         1.4036    3.0280    9.0531 H         1 <0>         0.0956
     58 H24         1.5879    3.2739    7.2998 H         1 <0>         0.0821
     59 H25         3.5725    4.0979    8.7429 H         1 <0>         0.0800
     60 H26         3.5994    5.4474    7.5587 H         1 <0>         0.0824
     61 H27         4.4365    5.8626   10.1347 H         1 <0>         0.0839
     62 H28         3.4695    7.1194    9.2897 H         1 <0>         0.0778
     63 H29         2.5032    4.9436   11.2248 H         1 <0>         0.0613
     64 H30         2.0947    6.6859   11.2225 H         1 <0>         0.0837
     65 H31        -2.9247    4.4670    8.6197 H         1 <0>         0.0921
     66 H32        -2.9152    2.7251    8.2534 H         1 <0>         0.0922
     67 H33        -2.8871    2.2555   10.7213 H         1 <0>         0.0777
     68 H34        -3.4109    4.1243   12.2647 H         1 <0>         0.0518
     69 H35        -1.8631    4.3998   11.4300 H         1 <0>         0.0759
     70 H36        -3.3243    5.2708   10.9058 H         1 <0>         0.0463
     71 H37        -5.0157    2.2913    9.4500 H         1 <0>         0.0544
     72 H38        -5.2519    2.8930   11.1084 H         1 <0>         0.0592
     73 H39        -5.1653    4.0394    9.7496 H         1 <0>         0.0542
@<TRIPOS>BOND
     1    1    2 1
     2    1   36 1
     3    1   37 1
     4    1   38 1
     5    2    7 ar
     6    2    3 ar
     7    3    4 ar
     8    3   39 1
     9    4    5 ar
    10    4   40 1
    11    5    6 ar
    12    5   41 1
    13    6    7 ar
    14    6   42 1
    15    7    8 1
    16    8    9 1
    17    8   43 1
    18    8   44 1
    19    9   10 2
    20    9   11 2
    21    9   12 1
    22   12   16 1
    23   12   13 2
    24   13   14 1
    25   14   15 2
    26   14   45 1
    27   15   16 1
    28   15   21 1
    29   16   17 1
    30   17   18 1
    31   17   46 1
    32   17   47 1
    33   18   19 1
    34   18   20 1
    35   18   48 1
    36   19   49 1
    37   19   50 1
    38   19   51 1
    39   20   52 1
    40   20   53 1
    41   20   54 1
    42   21   22 1
    43   21   55 1
    44   21   56 1
    45   22   23 1
    46   22   30 am
    47   23   24 1
    48   23   57 1
    49   23   58 1
    50   24   25 1
    51   24   29 1
    52   24   26 1
    53   26   27 1
    54   26   59 1
    55   26   60 1
    56   27   28 1
    57   27   61 1
    58   27   62 1
    59   28   29 1
    60   28   63 1
    61   28   64 1
    62   30   31 2
    63   30   32 1
    64   32   33 1
    65   32   65 1
    66   32   66 1
    67   33   34 1
    68   33   35 1
    69   33   67 1
    70   34   68 1
    71   34   69 1
    72   34   70 1
    73   35   71 1
    74   35   72 1
    75   35   73 1
@<TRIPOS>MOLECULE
ZINC00963794
   60    63     0     0     0
SMALL
USER_CHARGES

@<TRIPOS>ATOM
      1 C1          2.5392   -1.2092   -1.0240 C.3       1 <0>        -0.1678
      2 C2          2.1453    0.2276   -1.3724 C.3       1 <0>         0.1099
      3 N1          0.6914    0.3104   -1.5314 N.am      1 <0>        -0.5965
      4 C3         -0.1635    0.5102   -0.3586 C.3       1 <0>         0.1007
      5 C4         -0.4705    2.0006   -0.1991 C.3       1 <0>        -0.1563
      6 C5          0.1402    0.2029   -2.7566 C.2       1 <0>         0.6019
      7 O1          0.8383   -0.0635   -3.7161 O.2       1 <0>        -0.5331
      8 C6         -1.3088    0.4083   -2.9336 C.2       1 <0>        -0.0710
      9 C7         -1.9857    0.4185   -4.1142 C.2       1 <0>         0.0359
     10 O2         -3.2780    0.6360   -3.8226 O.3       1 <0>        -0.1834
     11 C8         -3.3931    0.7568   -2.4925 C.2       1 <0>         0.1970
     12 N2         -2.2221    0.6175   -1.9469 N.2       1 <0>        -0.4234
     13 C9         -4.6784    1.0093   -1.7473 C.3       1 <0>        -0.0141
     14 S1         -4.9393    2.7966   -1.5800 S.3       1 <0>         0.0425
     15 C10        -6.4603    2.9248   -0.6997 C.2       1 <0>         0.1606
     16 N3         -7.2023    1.9291   -0.2735 N.2       1 <0>        -0.2806
     17 N4         -8.2419    2.3845    0.3293 N.2       1 <0>        -0.2668
     18 C11        -8.2283    3.6875    0.3253 C.2       1 <0>         0.2119
     19 N5         -7.0890    4.0807   -0.3256 N.pl3     1 <0>        -0.4174
     20 C12        -6.6585    5.3944   -0.5619 C.ar      1 <0>         0.1030
     21 C13        -6.2165    6.1818    0.4927 C.ar      1 <0>        -0.0669
     22 C14        -5.7931    7.4750    0.2571 C.ar      1 <0>        -0.1017
     23 C15        -5.8096    7.9861   -1.0279 C.ar      1 <0>        -0.0514
     24 C16        -6.2492    7.2044   -2.0801 C.ar      1 <0>        -0.1686
     25 C17        -6.6680    5.9080   -1.8513 C.ar      1 <0>        -0.0477
     26 C18        -6.2661    7.7652   -3.4788 C.3       1 <0>         0.5103
     27 F1         -5.7957    9.0826   -3.4587 F         1 <0>        -0.1716
     28 F2         -5.4438    6.9889   -4.3024 F         1 <0>        -0.1706
     29 F3         -7.5745    7.7447   -3.9736 F         1 <0>        -0.1719
     30 C19        -9.2696    4.5936    0.9299 C.3       1 <0>         0.0062
     31 C20       -10.3905    4.7990   -0.0562 C.ar      1 <0>        -0.0913
     32 C21       -10.2867    5.7782   -1.0264 C.ar      1 <0>        -0.1106
     33 C22       -11.3149    5.9666   -1.9310 C.ar      1 <0>        -0.1180
     34 C23       -12.4465    5.1754   -1.8658 C.ar      1 <0>        -0.1135
     35 C24       -12.5499    4.1956   -0.8962 C.ar      1 <0>        -0.1174
     36 C25       -11.5199    4.0044    0.0058 C.ar      1 <0>        -0.0975
     37 H1          2.0546   -1.5033   -0.0930 H         1 <0>         0.0564
     38 H2          2.2226   -1.8772   -1.8251 H         1 <0>         0.0595
     39 H3          3.6210   -1.2709   -0.9057 H         1 <0>         0.0685
     40 H4          2.4619    0.8955   -0.5713 H         1 <0>         0.0787
     41 H5          2.6300    0.5216   -2.3034 H         1 <0>         0.0866
     42 H6         -1.0950   -0.0406   -0.4899 H         1 <0>         0.1056
     43 H7          0.3505    0.1478    0.5317 H         1 <0>         0.0739
     44 H8          0.4609    2.5513   -0.0678 H         1 <0>         0.0481
     45 H9         -0.9845    2.3630   -1.0893 H         1 <0>         0.0579
     46 H10        -1.1065    2.1492    0.6735 H         1 <0>         0.0659
     47 H11        -1.5636    0.2787   -5.0984 H         1 <0>         0.2366
     48 H12        -5.5102    0.5707   -2.2986 H         1 <0>         0.1305
     49 H13        -4.6195    0.5565   -0.7576 H         1 <0>         0.1426
     50 H14        -6.2040    5.7834    1.4965 H         1 <0>         0.1442
     51 H15        -5.4492    8.0880    1.0771 H         1 <0>         0.1528
     52 H16        -5.4787    8.9980   -1.2097 H         1 <0>         0.1520
     53 H17        -7.0072    5.2963   -2.6743 H         1 <0>         0.1437
     54 H18        -9.6639    4.1384    1.8385 H         1 <0>         0.1155
     55 H19        -8.8178    5.5556    1.1720 H         1 <0>         0.0943
     56 H20        -9.4026    6.3963   -1.0774 H         1 <0>         0.1146
     57 H21       -11.2341    6.7321   -2.6886 H         1 <0>         0.1236
     58 H22       -13.2501    5.3231   -2.5721 H         1 <0>         0.1239
     59 H23       -13.4342    3.5777   -0.8450 H         1 <0>         0.1257
     60 H24       -11.5991    3.2364    0.7610 H         1 <0>         0.1280
@<TRIPOS>BOND
     1    1    2 1
     2    1   37 1
     3    1   38 1
     4    1   39 1
     5    2    3 1
     6    2   40 1
     7    2   41 1
     8    3    4 1
     9    3    6 am
    10    4    5 1
    11    4   42 1
    12    4   43 1
    13    5   44 1
    14    5   45 1
    15    5   46 1
    16    6    7 2
    17    6    8 1
    18    8   12 1
    19    8    9 2
    20    9   10 1
    21    9   47 1
    22   10   11 1
    23   11   12 2
    24   11   13 1
    25   13   14 1
    26   13   48 1
    27   13   49 1
    28   14   15 1
    29   15   19 1
    30   15   16 2
    31   16   17 1
    32   17   18 2
    33   18   19 1
    34   18   30 1
    35   19   20 1
    36   20   25 ar
    37   20   21 ar
    38   21   22 ar
    39   21   50 1
    40   22   23 ar
    41   22   51 1
    42   23   24 ar
    43   23   52 1
    44   24   25 ar
    45   24   26 1
    46   25   53 1
    47   26   27 1
    48   26   28 1
    49   26   29 1
    50   30   31 1
    51   30   54 1
    52   30   55 1
    53   31   36 ar
    54   31   32 ar
    55   32   33 ar
    56   32   56 1
    57   33   34 ar
    58   33   57 1
    59   34   35 ar
    60   34   58 1
    61   35   36 ar
    62   35   59 1
    63   36   60 1
@<TRIPOS>MOLECULE
ZINC20324592
   81    84     0     0     0
SMALL
USER_CHARGES
(5S)-1-(3-diethylaminopropyl)-3-hydroxy-4-[(2S)-2-methyl2,3-dihydrobenzofuran-5-carbonyl]-5-(4-pentoxyphenyl)-5H-pyrrol-2-one
@<TRIPOS>ATOM
      1 C1          0.5203   -3.1178   -5.3193 C.3       1 <0>        -0.1557
      2 C2         -0.3024   -2.2556   -4.3597 C.3       1 <0>        -0.1243
      3 C3          0.3558   -2.2598   -2.9785 C.3       1 <0>        -0.1188
      4 C4         -0.4669   -1.3976   -2.0189 C.3       1 <0>        -0.1193
      5 C5          0.1913   -1.4018   -0.6377 C.3       1 <0>         0.0579
      6 O1         -0.5771   -0.5966    0.2585 O.3       1 <0>        -0.3180
      7 C6         -0.1262   -0.4936    1.5364 C.ar      1 <0>         0.1245
      8 C7          1.0289   -1.1586    1.9213 C.ar      1 <0>        -0.2066
      9 C8          1.4881   -1.0481    3.2195 C.ar      1 <0>        -0.0518
     10 C9          0.7918   -0.2840    4.1376 C.ar      1 <0>        -0.1184
     11 C10        -0.3628    0.3751    3.7580 C.ar      1 <0>        -0.0763
     12 C11        -0.8233    0.2720    2.4597 C.ar      1 <0>        -0.1530
     13 C12         1.2919   -0.1698    5.5547 C.3       1 <0>         0.2727
     14 H1          0.8134    0.7051    6.0190 H         1 <0>         0.0674
     15 C13         1.0052   -1.4459    6.3111 C.2       1 <0>        -0.4936
     16 C14         2.2006   -1.9445    6.7031 C.2       1 <0>         0.2583
     17 C15         3.2779   -1.0471    6.2357 C.2       1 <0>         0.5147
     18 O2          4.4645   -1.2224    6.4293 O.2       1 <0>        -0.5323
     19 N1          2.7505   -0.0078    5.5635 N.am      1 <0>        -0.6154
     20 C16         3.4996    1.0910    4.9491 C.3       1 <0>         0.1405
     21 C17         3.6698    2.2227    5.9646 C.3       1 <0>        -0.1703
     22 C18         4.4522    3.3704    5.3229 C.3       1 <0>        -0.0065
     23 N2          4.6926    4.4187    6.3235 N.4       1 <0>        -0.4001
     24 C19         5.7566    4.0226    7.2557 C.3       1 <0>        -0.0137
     25 C20         5.8094    5.0135    8.4203 C.3       1 <0>        -0.1876
     26 C21         5.0082    5.7000    5.6781 C.3       1 <0>        -0.0137
     27 C22         3.7270    6.3149    5.1114 C.3       1 <0>        -0.1890
     28 O3          2.3809   -3.0834    7.4110 O.3       1 <0>        -0.6436
     29 C23        -0.3140   -2.0312    6.5705 C.2       1 <0>         0.5037
     30 O4         -0.6017   -3.1160    6.0998 O.2       1 <0>        -0.4706
     31 C24        -1.2931   -1.3047    7.4026 C.ar      1 <0>        -0.1641
     32 C25        -0.9302   -0.1146    8.0411 C.ar      1 <0>        -0.0341
     33 C26        -1.8422    0.5591    8.8177 C.ar      1 <0>        -0.1564
     34 C27        -3.1380    0.0638    8.9775 C.ar      1 <0>         0.1197
     35 C28        -3.4954   -1.1186    8.3347 C.ar      1 <0>        -0.1885
     36 C29        -2.5935   -1.7981    7.5543 C.ar      1 <0>        -0.0233
     37 C30        -4.9467   -1.3903    8.6814 C.3       1 <0>        -0.1035
     38 C31        -5.4034   -0.0214    9.2388 C.3       1 <0>         0.0807
     39 H2         -6.1351   -0.0683   10.0588 H         1 <0>         0.1180
     40 O5         -4.1740    0.5591    9.7058 O.3       1 <0>        -0.3009
     41 C32        -6.0211    0.8355    8.1319 C.3       1 <0>        -0.1774
     42 H3          0.0471   -3.1148   -6.3123 H         1 <0>         0.0553
     43 H4          0.5664   -4.1486   -4.9382 H         1 <0>         0.0553
     44 H5          1.5389   -2.7098   -5.3972 H         1 <0>         0.0539
     45 H6         -0.3485   -1.2248   -4.7408 H         1 <0>         0.0625
     46 H7         -1.3210   -2.6636   -4.2817 H         1 <0>         0.0639
     47 H8          0.4019   -3.2907   -2.5974 H         1 <0>         0.0667
     48 H9          1.3744   -1.8519   -3.0565 H         1 <0>         0.0645
     49 H10        -0.5130   -0.3668   -2.4000 H         1 <0>         0.0726
     50 H11        -1.4855   -1.8056   -1.9409 H         1 <0>         0.0747
     51 H12         0.2374   -2.4327   -0.2567 H         1 <0>         0.0632
     52 H13         1.2099   -0.9938   -0.7156 H         1 <0>         0.0598
     53 H14         1.5709   -1.7589    1.2055 H         1 <0>         0.1232
     54 H15         2.3898   -1.5620    3.5185 H         1 <0>         0.1181
     55 H16        -0.9050    0.9713    4.4770 H         1 <0>         0.1252
     56 H17        -1.7251    0.7874    2.1635 H         1 <0>         0.1262
     57 H18         4.4894    0.7289    4.6342 H         1 <0>         0.0854
     58 H19         2.9499    1.4645    4.0725 H         1 <0>         0.0861
     59 H20         2.6800    2.5847    6.2795 H         1 <0>         0.0922
     60 H21         4.2195    1.8492    6.8412 H         1 <0>         0.0909
     61 H22         5.4152    2.9932    4.9483 H         1 <0>         0.1285
     62 H23         3.8716    3.7876    4.4869 H         1 <0>         0.1321
     63 H24         5.5490    3.0137    7.6418 H         1 <0>         0.1344
     64 H25         6.7230    4.0224    6.7304 H         1 <0>         0.1257
     65 H26         6.6061    4.7168    9.1183 H         1 <0>         0.1050
     66 H27         4.8430    5.0137    8.9457 H         1 <0>         0.0810
     67 H28         6.0170    6.0224    8.0342 H         1 <0>         0.0772
     68 H29         5.4474    6.3850    6.4183 H         1 <0>         0.1297
     69 H30         5.7265    5.5324    4.8621 H         1 <0>         0.1253
     70 H31         3.9634    7.2744    4.6281 H         1 <0>         0.1035
     71 H32         3.0087    6.4825    5.9274 H         1 <0>         0.0808
     72 H33         3.2878    5.6299    4.3712 H         1 <0>         0.0810
     73 H34         0.0698    0.2760    7.9237 H         1 <0>         0.1380
     74 H35        -1.5548    1.4778    9.3074 H         1 <0>         0.1256
     75 H36        -2.8858   -2.7137    7.0619 H         1 <0>         0.1316
     76 H37        -5.4906   -1.6900    7.7735 H         1 <0>         0.0934
     77 H38        -5.0009   -2.1991    9.4250 H         1 <0>         0.0920
     78 H39        -6.3380    1.8022    8.5503 H         1 <0>         0.0669
     79 H40        -6.8933    0.3153    7.7091 H         1 <0>         0.0761
     80 H41        -5.2761    1.0050    7.3405 H         1 <0>         0.0623
     81 H42         3.7673    4.5512    6.9033 H         1 <0>         0.4391
@<TRIPOS>BOND
     1    1    2 1
     2    1   42 1
     3    1   43 1
     4    1   44 1
     5    2    3 1
     6    2   45 1
     7    2   46 1
     8    3    4 1
     9    3   47 1
    10    3   48 1
    11    4    5 1
    12    4   49 1
    13    4   50 1
    14    5    6 1
    15    5   51 1
    16    5   52 1
    17    6    7 1
    18    7   12 ar
    19    7    8 ar
    20    8    9 ar
    21    8   53 1
    22    9   10 ar
    23    9   54 1
    24   10   11 ar
    25   10   13 1
    26   11   12 ar
    27   11   55 1
    28   12   56 1
    29   13   14 1
    30   13   19 1
    31   13   15 1
    32   15   16 2
    33   15   29 1
    34   16   17 1
    35   16   28 1
    36   17   18 2
    37   17   19 am
    38   19   20 1
    39   20   21 1
    40   20   57 1
    41   20   58 1
    42   21   22 1
    43   21   59 1
    44   21   60 1
    45   22   23 1
    46   22   61 1
    47   22   62 1
    48   23   24 1
    49   23   26 1
    50   23   81 1
    51   24   25 1
    52   24   63 1
    53   24   64 1
    54   25   65 1
    55   25   66 1
    56   25   67 1
    57   26   27 1
    58   26   68 1
    59   26   69 1
    60   27   70 1
    61   27   71 1
    62   27   72 1
    63   29   30 2
    64   29   31 1
    65   31   36 ar
    66   31   32 ar
    67   32   33 ar
    68   32   73 1
    69   33   34 ar
    70   33   74 1
    71   34   40 1
    72   34   35 ar
    73   35   36 ar
    74   35   37 1
    75   36   75 1
    76   37   38 1
    77   37   76 1
    78   37   77 1
    79   38   39 1
    80   38   40 1
    81   38   41 1
    82   41   78 1
    83   41   79 1
    84   41   80 1
@<TRIPOS>MOLECULE
ZINC35419999
   77    80     0     0     0
SMALL
USER_CHARGES

@<TRIPOS>ATOM
      1 C1          2.0988    2.6798   -0.1308 C.3       1 <0>        -0.1545
      2 C2          1.6901    1.2223   -0.3535 C.3       1 <0>        -0.1242
      3 C3          2.5142    0.6308   -1.4989 C.3       1 <0>        -0.1170
      4 C4          2.1055   -0.8267   -1.7216 C.3       1 <0>        -0.1188
      5 C5          2.9296   -1.4181   -2.8670 C.3       1 <0>         0.0601
      6 O1          2.5479   -2.7794   -3.0749 O.3       1 <0>        -0.3050
      7 C6          3.1897   -3.4563   -4.0646 C.ar      1 <0>         0.0974
      8 C7          4.1692   -2.8256   -4.8149 C.ar      1 <0>        -0.1760
      9 C8          4.8209   -3.5153   -5.8202 C.ar      1 <0>        -0.0949
     10 C9          4.4975   -4.8341   -6.0800 C.ar      1 <0>        -0.0734
     11 C10         3.5210   -5.4691   -5.3355 C.ar      1 <0>        -0.1667
     12 C11         2.8682   -4.7854   -4.3222 C.ar      1 <0>         0.1042
     13 O2          1.9115   -5.4104   -3.5849 O.3       1 <0>        -0.3055
     14 C12         1.6959   -6.7989   -3.8450 C.3       1 <0>         0.0541
     15 C13         0.5422   -7.3070   -2.9780 C.3       1 <0>        -0.1515
     16 C14         5.2108   -5.5810   -7.1774 C.3       1 <0>         0.2687
     17 H1          4.7318   -6.5454   -7.3468 H         1 <0>         0.0776
     18 C15         6.6635   -5.7793   -6.8121 C.2       1 <0>        -0.4845
     19 C16         7.1821   -6.5115   -5.6498 C.2       1 <0>         0.5453
     20 C17         7.6798   -7.8288   -5.8067 C.2       1 <0>        -0.1498
     21 C18         7.6479   -8.5984   -6.9627 C.2       1 <0>         0.1628
     22 N1          8.2116   -9.7641   -6.6979 N.2       1 <0>        -0.5054
     23 C19         8.6108   -9.7956   -5.4261 C.2       1 <0>         0.2381
     24 N2          8.2992   -8.6012   -4.8409 N.pl3     1 <0>        -0.3285
     25 C20         8.6049   -8.3669   -3.5372 C.2       1 <0>         0.0775
     26 C21         9.2269   -9.3117   -2.7942 C.2       1 <0>        -0.1539
     27 C22         9.5634  -10.5460   -3.3654 C.2       1 <0>        -0.0907
     28 C23         9.2527  -10.7917   -4.6707 C.2       1 <0>        -0.0923
     29 C24         7.0700   -8.1771   -8.2892 C.3       1 <0>        -0.0752
     30 O3          7.1845   -5.9858   -4.5494 O.2       1 <0>        -0.4978
     31 C25         7.3937   -5.1525   -7.7619 C.2       1 <0>         0.2576
     32 O4          8.7465   -5.0952   -7.8005 O.3       1 <0>        -0.6429
     33 C26         6.4843   -4.5416   -8.7501 C.2       1 <0>         0.5172
     34 O5          6.8383   -3.9083   -9.7251 O.2       1 <0>        -0.5218
     35 N3          5.2055   -4.7891   -8.4132 N.am      1 <0>        -0.6131
     36 C27         4.0185   -4.3467   -9.1491 C.3       1 <0>         0.1185
     37 C28         3.5753   -2.9785   -8.6270 C.3       1 <0>        -0.0459
     38 N4          2.3851   -2.5350   -9.3650 N.4       1 <0>        -0.3823
     39 C29         1.2653   -3.4416   -9.0786 C.3       1 <0>        -0.0526
     40 C30         2.0304   -1.1717   -8.9482 C.3       1 <0>        -0.0453
     41 H2          3.1580    2.7255    0.1223 H         1 <0>         0.0550
     42 H3          1.9178    3.2510   -1.0413 H         1 <0>         0.0532
     43 H4          1.5117    3.1011    0.6852 H         1 <0>         0.0557
     44 H5          1.8711    0.6510    0.5570 H         1 <0>         0.0642
     45 H6          0.6309    1.1765   -0.6066 H         1 <0>         0.0623
     46 H7          2.3332    1.2021   -2.4094 H         1 <0>         0.0629
     47 H8          3.5734    0.6766   -1.2458 H         1 <0>         0.0663
     48 H9          2.2865   -1.3979   -0.8111 H         1 <0>         0.0753
     49 H10         1.0463   -0.8724   -1.9747 H         1 <0>         0.0722
     50 H11         2.7486   -0.8469   -3.7775 H         1 <0>         0.0557
     51 H12         3.9888   -1.3724   -2.6139 H         1 <0>         0.0623
     52 H13         4.4232   -1.7953   -4.6145 H         1 <0>         0.1314
     53 H14         5.5842   -3.0226   -6.4043 H         1 <0>         0.1221
     54 H15         3.2699   -6.4992   -5.5406 H         1 <0>         0.1327
     55 H16         1.4479   -6.9372   -4.8973 H         1 <0>         0.0584
     56 H17         2.6015   -7.3577   -3.6086 H         1 <0>         0.0623
     57 H18         0.3778   -8.3661   -3.1764 H         1 <0>         0.0785
     58 H19         0.7902   -7.1687   -1.9257 H         1 <0>         0.0674
     59 H20        -0.3633   -6.7482   -3.2144 H         1 <0>         0.0645
     60 H21         8.3493   -7.4176   -3.0902 H         1 <0>         0.1723
     61 H22         9.4646   -9.1138   -1.7595 H         1 <0>         0.1525
     62 H23        10.0604  -11.3008   -2.7740 H         1 <0>         0.1443
     63 H24         9.5081  -11.7387   -5.1227 H         1 <0>         0.1525
     64 H25         7.8080   -7.5917   -8.8376 H         1 <0>         0.0858
     65 H26         6.8055   -9.0622   -8.8678 H         1 <0>         0.0673
     66 H27         6.1784   -7.5728   -8.1216 H         1 <0>         0.0838
     67 H28         4.2561   -4.2712  -10.2102 H         1 <0>         0.0997
     68 H29         3.2135   -5.0678   -9.0074 H         1 <0>         0.0961
     69 H30         3.3377   -3.0541   -7.5659 H         1 <0>         0.1382
     70 H31         4.3803   -2.2574   -8.7687 H         1 <0>         0.1342
     71 H32         1.0543   -3.4319   -8.0092 H         1 <0>         0.1220
     72 H33         0.3821   -3.1124   -9.6261 H         1 <0>         0.1231
     73 H34         1.5285   -4.4531   -9.3878 H         1 <0>         0.1248
     74 H35         2.8613   -0.4990   -9.1607 H         1 <0>         0.1227
     75 H36         1.1472   -0.8426   -9.4957 H         1 <0>         0.1227
     76 H37         1.8194   -1.1621   -7.8788 H         1 <0>         0.1202
     77 H38         2.5804   -2.5439  -10.3549 H         1 <0>         0.4261
@<TRIPOS>BOND
     1    1    2 1
     2    1   41 1
     3    1   42 1
     4    1   43 1
     5    2    3 1
     6    2   44 1
     7    2   45 1
     8    3    4 1
     9    3   46 1
    10    3   47 1
    11    4    5 1
    12    4   48 1
    13    4   49 1
    14    5    6 1
    15    5   50 1
    16    5   51 1
    17    6    7 1
    18    7   12 ar
    19    7    8 ar
    20    8    9 ar
    21    8   52 1
    22    9   10 ar
    23    9   53 1
    24   10   11 ar
    25   10   16 1
    26   11   12 ar
    27   11   54 1
    28   12   13 1
    29   13   14 1
    30   14   15 1
    31   14   55 1
    32   14   56 1
    33   15   57 1
    34   15   58 1
    35   15   59 1
    36   16   18 1
    37   16   35 1
    38   16   17 1
    39   18   31 2
    40   18   19 1
    41   19   30 2
    42   19   20 1
    43   20   24 1
    44   20   21 2
    45   21   22 1
    46   21   29 1
    47   22   23 2
    48   23   28 1
    49   23   24 1
    50   24   25 1
    51   25   26 2
    52   25   60 1
    53   26   27 1
    54   26   61 1
    55   27   28 2
    56   27   62 1
    57   28   63 1
    58   29   64 1
    59   29   65 1
    60   29   66 1
    61   31   33 1
    62   31   32 1
    63   33   35 am
    64   33   34 2
    65   35   36 1
    66   36   37 1
    67   36   67 1
    68   36   68 1
    69   37   38 1
    70   37   69 1
    71   37   70 1
    72   38   39 1
    73   38   40 1
    74   38   77 1
    75   39   71 1
    76   39   72 1
    77   39   73 1
    78   40   74 1
    79   40   75 1
    80   40   76 1
@<TRIPOS>MOLECULE
ZINC36501178
   67    69     0     0     0
SMALL
USER_CHARGES

@<TRIPOS>ATOM
      1 C1          0.4212    0.9432   -0.0503 C.3       1 <0>        -0.1535
      2 C2          0.2680   -0.5683    0.1307 C.3       1 <0>        -0.1204
      3 C3         -1.2060   -0.9524   -0.0135 C.3       1 <0>        -0.1335
      4 C4         -1.3592   -2.4639    0.1674 C.3       1 <0>         0.1202
      5 N1         -2.7706   -2.8316    0.0293 N.am      1 <0>        -0.7332
      6 C5         -3.1462   -4.1202    0.1511 C.2       1 <0>         0.4962
      7 O1         -2.3067   -4.9898    0.2507 O.2       1 <0>        -0.4858
      8 C6         -4.6094   -4.4806    0.1635 C.3       1 <0>         0.1661
      9 H1         -5.0650   -4.1185    1.0852 H         1 <0>         0.1489
     10 C7         -5.2936   -3.8442   -1.0188 C.ar      1 <0>        -0.1035
     11 C8         -4.5411   -3.3209   -2.0537 C.ar      1 <0>        -0.0411
     12 C9         -5.1685   -2.7366   -3.1379 C.ar      1 <0>        -0.0433
     13 C10        -6.5488   -2.6753   -3.1882 C.ar      1 <0>        -0.0309
     14 C11        -7.3021   -3.1985   -2.1545 C.ar      1 <0>        -0.1047
     15 C12        -6.6748   -3.7886   -1.0714 C.ar      1 <0>         0.0272
     16 Cl1        -7.6205   -4.4525    0.2241 Cl        1 <0>        -0.0130
     17 N2         -4.3623   -2.1761   -4.2453 N.pl3     1 <0>         0.0308
     18 O2         -3.1552   -2.2293   -4.2014 O.2       1 <0>        -0.1464
     19 O3         -4.9107   -1.6650   -5.1938 O.3       1 <0>        -0.1458
     20 N3         -4.7545   -5.9364    0.0863 N.am      1 <0>        -0.5878
     21 C13        -4.4040   -6.6429   -1.1483 C.3       1 <0>         0.1897
     22 C14        -3.0129   -7.2092   -1.0253 C.2       1 <0>        -0.0253
     23 C15        -2.7017   -8.4444   -0.5931 C.2       1 <0>        -0.2026
     24 C16        -1.2927   -8.5515   -0.6389 C.2       1 <0>        -0.2213
     25 C17        -0.8271   -7.3753   -1.0963 C.2       1 <0>        -0.0195
     26 O4         -1.8738   -6.5682   -1.3342 O.3       1 <0>        -0.1429
     27 C18        -5.2104   -6.6256    1.1510 C.2       1 <0>         0.5301
     28 O5         -5.5006   -6.0406    2.1730 O.2       1 <0>        -0.5204
     29 C19        -5.3597   -8.1231    1.0715 C.3       1 <0>        -0.1465
     30 C20        -5.8911   -8.6541    2.4044 C.3       1 <0>        -0.0585
     31 C21        -6.0404  -10.1516    2.3249 C.ar      1 <0>        -0.1223
     32 C22        -7.2301  -10.7044    1.8882 C.ar      1 <0>        -0.0751
     33 C23        -7.3696  -12.0768    1.8149 C.ar      1 <0>        -0.1496
     34 C24        -6.3145  -12.9005    2.1795 C.ar      1 <0>         0.1250
     35 C25        -5.1216  -12.3434    2.6169 C.ar      1 <0>        -0.2051
     36 C26        -4.9854  -10.9703    2.6835 C.ar      1 <0>        -0.0735
     37 O6         -6.4494  -14.2510    2.1087 O.3       1 <0>        -0.3183
     38 C27        -5.3219  -15.0370    2.4998 C.3       1 <0>         0.0267
     39 H2          1.4713    1.2168    0.0525 H         1 <0>         0.0571
     40 H3          0.0667    1.2284   -1.0408 H         1 <0>         0.0556
     41 H4         -0.1651    1.4613    0.7086 H         1 <0>         0.0538
     42 H5          0.8544   -1.0864   -0.6282 H         1 <0>         0.0669
     43 H6          0.6225   -0.8535    1.1212 H         1 <0>         0.0646
     44 H7         -1.7924   -0.4343    0.7453 H         1 <0>         0.0682
     45 H8         -1.5605   -0.6672   -1.0040 H         1 <0>         0.0707
     46 H9         -0.7728   -2.9820   -0.5915 H         1 <0>         0.0738
     47 H10        -1.0047   -2.7490    1.1579 H         1 <0>         0.0685
     48 H11        -3.4347   -2.1477   -0.1498 H         1 <0>         0.3978
     49 H12        -3.4629   -3.3682   -2.0148 H         1 <0>         0.1693
     50 H13        -7.0384   -2.2180   -4.0353 H         1 <0>         0.1684
     51 H14        -8.3803   -3.1502   -2.1937 H         1 <0>         0.1649
     52 H15        -5.1128   -7.4538   -1.3166 H         1 <0>         0.1149
     53 H16        -4.4407   -5.9483   -1.9874 H         1 <0>         0.0900
     54 H17        -3.3951   -9.2077   -0.2721 H         1 <0>         0.1470
     55 H18        -0.7032   -9.4123   -0.3598 H         1 <0>         0.1440
     56 H19         0.2120   -7.1241   -1.2501 H         1 <0>         0.1963
     57 H20        -6.0587   -8.3768    0.2746 H         1 <0>         0.0970
     58 H21        -4.3899   -8.5742    0.8614 H         1 <0>         0.1095
     59 H22        -5.1921   -8.4004    3.2013 H         1 <0>         0.0798
     60 H23        -6.8609   -8.2029    2.6145 H         1 <0>         0.0796
     61 H24        -8.0511  -10.0627    1.6045 H         1 <0>         0.1288
     62 H25        -8.2993  -12.5081    1.4744 H         1 <0>         0.1307
     63 H26        -4.2988  -12.9825    2.9013 H         1 <0>         0.1280
     64 H27        -4.0555  -10.5360    3.0198 H         1 <0>         0.1248
     65 H28        -5.5628  -16.0949    2.3959 H         1 <0>         0.1010
     66 H29        -4.4711  -14.7938    1.8634 H         1 <0>         0.0559
     67 H30        -5.0717  -14.8217    3.5387 H         1 <0>         0.0559
@<TRIPOS>BOND
     1    1    2 1
     2    1   39 1
     3    1   40 1
     4    1   41 1
     5    2    3 1
     6    2   42 1
     7    2   43 1
     8    3    4 1
     9    3   44 1
    10    3   45 1
    11    4    5 1
    12    4   46 1
    13    4   47 1
    14    5    6 am
    15    5   48 1
    16    6    7 2
    17    6    8 1
    18    8    9 1
    19    8   10 1
    20    8   20 1
    21   10   15 ar
    22   10   11 ar
    23   11   12 ar
    24   11   49 1
    25   12   13 ar
    26   12   17 1
    27   13   14 ar
    28   13   50 1
    29   14   15 ar
    30   14   51 1
    31   15   16 1
    32   17   18 2
    33   17   19 1
    34   20   21 1
    35   20   27 am
    36   21   22 1
    37   21   52 1
    38   21   53 1
    39   22   26 1
    40   22   23 2
    41   23   24 1
    42   23   54 1
    43   24   25 2
    44   24   55 1
    45   25   26 1
    46   25   56 1
    47   27   28 2
    48   27   29 1
    49   29   30 1
    50   29   57 1
    51   29   58 1
    52   30   31 1
    53   30   59 1
    54   30   60 1
    55   31   36 ar
    56   31   32 ar
    57   32   33 ar
    58   32   61 1
    59   33   34 ar
    60   33   62 1
    61   34   35 ar
    62   34   37 1
    63   35   36 ar
    64   35   63 1
    65   36   64 1
    66   37   38 1
    67   38   65 1
    68   38   66 1
    69   38   67 1
@<TRIPOS>MOLECULE
ZINC40019278
   78    80     0     0     0
SMALL
USER_CHARGES

@<TRIPOS>ATOM
      1 C1         -4.4863    2.4557   -1.2986 C.3       1 <0>        -0.1567
      2 C2         -4.4057    1.2652   -0.3409 C.3       1 <0>        -0.1216
      3 C3         -3.5358    0.1698   -0.9609 C.3       1 <0>        -0.1471
      4 C4         -3.4553   -1.0206   -0.0032 C.3       1 <0>        -0.0174
      5 N1         -2.6201   -2.0723   -0.5986 N.4       1 <0>        -0.3844
      6 C5         -1.2403   -1.5858   -0.7307 C.3       1 <0>        -0.0139
      7 C6         -0.4029   -2.6242   -1.4799 C.3       1 <0>        -0.1512
      8 C7          1.0486   -2.1471   -1.5601 C.3       1 <0>        -0.1192
      9 C8          1.8861   -3.1855   -2.3094 C.3       1 <0>        -0.1587
     10 C9         -2.6397   -3.2606    0.2649 C.3       1 <0>        -0.0107
     11 C10        -4.0502   -3.8530    0.2853 C.3       1 <0>        -0.1795
     12 C11        -4.0433   -5.1594    1.0816 C.3       1 <0>         0.1427
     13 N2         -5.3939   -5.7265    1.1012 N.am      1 <0>        -0.6168
     14 C12        -6.4313   -5.4524    2.1024 C.3       1 <0>         0.2634
     15 H1         -6.0893   -5.7603    3.0905 H         1 <0>         0.0827
     16 C13        -7.6370   -6.2658    1.6932 C.2       1 <0>        -0.5059
     17 C14        -7.2952   -6.9306    0.5652 C.2       1 <0>         0.2644
     18 C15        -5.9047   -6.5864    0.2013 C.2       1 <0>         0.5152
     19 O1         -5.3097   -7.0184   -0.7660 O.2       1 <0>        -0.5228
     20 O2         -8.1000   -7.7729   -0.1228 O.3       1 <0>        -0.6350
     21 C16        -8.9287   -6.3238    2.3851 C.2       1 <0>         0.5055
     22 O3         -9.9276   -5.8839    1.8468 O.2       1 <0>        -0.4745
     23 C17        -9.0173   -6.9156    3.7344 C.ar      1 <0>        -0.1851
     24 C18        -7.8770   -7.4507    4.3415 C.ar      1 <0>        -0.0275
     25 C19        -7.9640   -8.0018    5.6000 C.ar      1 <0>        -0.1687
     26 C20        -9.1836   -8.0268    6.2674 C.ar      1 <0>         0.1496
     27 C21       -10.3200   -7.4958    5.6672 C.ar      1 <0>        -0.2233
     28 C22       -10.2405   -6.9376    4.4114 C.ar      1 <0>        -0.0307
     29 O4         -9.2652   -8.5713    7.5076 O.3       1 <0>        -0.3146
     30 C23       -10.5485   -8.5642    8.1361 C.3       1 <0>         0.0523
     31 C24       -10.4437   -9.2150    9.5169 C.3       1 <0>        -0.1522
     32 C25        -6.7722   -3.9845    2.1069 C.ar      1 <0>        -0.0703
     33 C26        -7.0521   -3.3362    0.9182 C.ar      1 <0>        -0.0441
     34 C27        -7.3648   -1.9899    0.9222 C.ar      1 <0>        -0.1282
     35 C28        -7.3980   -1.2915    2.1150 C.ar      1 <0>        -0.0637
     36 C29        -7.1191   -1.9398    3.3034 C.ar      1 <0>        -0.0474
     37 C30        -6.8106   -3.2875    3.2998 C.ar      1 <0>        -0.0509
     38 N3         -7.1542   -1.1920    4.5803 N.pl3     1 <0>         0.0337
     39 O5         -7.5179   -0.0391    4.5958 O.2       1 <0>        -0.1627
     40 O6         -6.8192   -1.7341    5.6077 O.3       1 <0>        -0.1556
     41 H2         -5.1060    3.2360   -0.8569 H         1 <0>         0.0663
     42 H3         -3.4845    2.8456   -1.4786 H         1 <0>         0.0572
     43 H4         -4.9258    2.1335   -2.2426 H         1 <0>         0.0591
     44 H5         -3.9662    1.5874    0.6031 H         1 <0>         0.0723
     45 H6         -5.4075    0.8752   -0.1609 H         1 <0>         0.0746
     46 H7         -3.9753   -0.1523   -1.9049 H         1 <0>         0.0868
     47 H8         -2.5340    0.5598   -1.1409 H         1 <0>         0.0854
     48 H9         -3.0158   -0.6984    0.9407 H         1 <0>         0.1290
     49 H10        -4.4571   -1.4106    0.1767 H         1 <0>         0.1313
     50 H11        -1.2374   -0.6476   -1.2857 H         1 <0>         0.1312
     51 H12        -0.8160   -1.4231    0.2601 H         1 <0>         0.1288
     52 H13        -0.4439   -3.5754   -0.9493 H         1 <0>         0.0883
     53 H14        -0.7993   -2.7525   -2.4871 H         1 <0>         0.0873
     54 H15         1.0897   -1.1959   -2.0907 H         1 <0>         0.0715
     55 H16         1.4451   -2.0188   -0.5529 H         1 <0>         0.0720
     56 H17         2.9202   -2.8457   -2.3665 H         1 <0>         0.0648
     57 H18         1.8450   -4.1368   -1.7788 H         1 <0>         0.0598
     58 H19         1.4896   -3.3139   -3.3166 H         1 <0>         0.0593
     59 H20        -1.9399   -4.0018   -0.1211 H         1 <0>         0.1359
     60 H21        -2.3491   -2.9791    1.2770 H         1 <0>         0.1311
     61 H22        -4.7346   -3.1456    0.7537 H         1 <0>         0.0904
     62 H23        -4.3757   -4.0516   -0.7358 H         1 <0>         0.0932
     63 H24        -3.3589   -5.8667    0.6133 H         1 <0>         0.0915
     64 H25        -3.7178   -4.9607    2.1028 H         1 <0>         0.0866
     65 H26        -6.9294   -7.4320    3.8237 H         1 <0>         0.1375
     66 H27        -7.0838   -8.4156    6.0695 H         1 <0>         0.1323
     67 H28       -11.2654   -7.5175    6.1888 H         1 <0>         0.1290
     68 H29       -11.1226   -6.5211    3.9479 H         1 <0>         0.1318
     69 H30       -10.8944   -7.5362    8.2443 H         1 <0>         0.0631
     70 H31       -11.2561   -9.1231    7.5238 H         1 <0>         0.0635
     71 H32        -9.7361   -8.6561   10.1292 H         1 <0>         0.0662
     72 H33       -11.4226   -9.2095    9.9963 H         1 <0>         0.0784
     73 H34       -10.0979  -10.2430    9.4087 H         1 <0>         0.0664
     74 H35        -7.0261   -3.8818   -0.0135 H         1 <0>         0.1383
     75 H36        -7.5827   -1.4834   -0.0064 H         1 <0>         0.1442
     76 H37        -7.6416   -0.2394    2.1181 H         1 <0>         0.1499
     77 H38        -6.5963   -3.7949    4.2288 H         1 <0>         0.1533
     78 H39        -2.9806   -2.3127   -1.5098 H         1 <0>         0.4233
@<TRIPOS>BOND
     1    1    2 1
     2    1   41 1
     3    1   42 1
     4    1   43 1
     5    2    3 1
     6    2   44 1
     7    2   45 1
     8    3    4 1
     9    3   46 1
    10    3   47 1
    11    4    5 1
    12    4   48 1
    13    4   49 1
    14    5    6 1
    15    5   10 1
    16    5   78 1
    17    6    7 1
    18    6   50 1
    19    6   51 1
    20    7    8 1
    21    7   52 1
    22    7   53 1
    23    8    9 1
    24    8   54 1
    25    8   55 1
    26    9   56 1
    27    9   57 1
    28    9   58 1
    29   10   11 1
    30   10   59 1
    31   10   60 1
    32   11   12 1
    33   11   61 1
    34   11   62 1
    35   12   13 1
    36   12   63 1
    37   12   64 1
    38   13   18 am
    39   13   14 1
    40   14   15 1
    41   14   16 1
    42   14   32 1
    43   16   17 2
    44   16   21 1
    45   17   18 1
    46   17   20 1
    47   18   19 2
    48   21   22 2
    49   21   23 1
    50   23   28 ar
    51   23   24 ar
    52   24   25 ar
    53   24   65 1
    54   25   26 ar
    55   25   66 1
    56   26   27 ar
    57   26   29 1
    58   27   28 ar
    59   27   67 1
    60   28   68 1
    61   29   30 1
    62   30   31 1
    63   30   69 1
    64   30   70 1
    65   31   71 1
    66   31   72 1
    67   31   73 1
    68   32   37 ar
    69   32   33 ar
    70   33   34 ar
    71   33   74 1
    72   34   35 ar
    73   34   75 1
    74   35   36 ar
    75   35   76 1
    76   36   37 ar
    77   36   38 1
    78   37   77 1
    79   38   39 2
    80   38   40 1
