@<TRIPOS>MOLECULE
1J4H-SUB
 58 60 0 0 0
SMALL
SF_CHARGES


@<TRIPOS>ATOM
1    C       -35.5290   39.8570   31.9630  C.2        1 SUBUNIT      0.6589
2    N       -34.5150   39.0560   32.6350  N.am       1 SUBUNIT     -0.5115
3    C       -33.6240   39.7710   33.5780  C.2        1 SUBUNIT      0.2387
4    C       -31.9220   43.7000   33.5740  C.3        1 SUBUNIT      0.2148
5    C       -32.9450   39.0340   34.9280  C.3        1 SUBUNIT     -0.0079
6    C       -33.7890   37.7220   34.8100  C.2        1 SUBUNIT     -0.0282
7    C       -33.5520   36.7180   33.7510  C.2        1 SUBUNIT     -0.0966
8    C       -34.3560   35.4900   33.7060  C.2        1 SUBUNIT     -0.0927
9    C       -35.3940   35.2490   34.7090  C.2        1 SUBUNIT     -0.0922
10   C       -35.6240   36.2480   35.7470  C.2        1 SUBUNIT     -0.0927
11   C       -34.8220   37.4420   35.7710  C.2        1 SUBUNIT     -0.0966
12   O       -32.7650   42.4710   34.0890  O.3        1 SUBUNIT     -0.4128
13   O       -32.2730   41.0210   31.9540  O.2        1 SUBUNIT     -0.5447
14   C       -33.0090   41.1180   33.4290  C.2        1 SUBUNIT      0.6978
15   C       -31.7900   45.2960   33.7970  C.3        1 SUBUNIT     -0.1104
16   C       -37.3890   37.6300   32.3800  C.3        1 SUBUNIT      0.1573
17   O       -35.8130   41.2860   32.3430  O.2        1 SUBUNIT     -0.5399
18   C       -38.7940   38.1420   32.4040  C.3        1 SUBUNIT      0.0117
19   S       -38.6960   39.6760   32.6280  S.3        1 SUBUNIT     -0.1896
20   C       -38.0220   40.0570   31.1130  C.3        1 SUBUNIT      0.0056
21   C       -36.4580   39.3720   30.9750  C.3        1 SUBUNIT      0.1799
22   N       -36.7040   37.8210   31.1070  N.pl3      1 SUBUNIT     -0.5800
23   S       -36.5860   37.2930   29.4710  S.o2       1 SUBUNIT      1.3112
24   C       -35.3380   36.1030   29.7820  C.2        1 SUBUNIT     -0.0773
25   C       -35.7610   34.7560   30.0760  C.2        1 SUBUNIT     -0.1117
26   C       -34.7880   33.7410   30.3580  C.2        1 SUBUNIT     -0.1113
27   C       -33.3500   34.0810   30.3470  C.2        1 SUBUNIT     -0.0406
28   C       -32.9580   35.4100   30.0530  C.2        1 SUBUNIT     -0.1113
29   C       -33.9640   36.4310   29.7670  C.2        1 SUBUNIT     -0.1117
30   O       -36.2430   38.2380   28.4390  O.2        1 SUBUNIT     -0.6327
31   O       -37.7980   36.4120   29.5800  O.2        1 SUBUNIT     -0.6327
32   C       -32.2770   33.0530   30.6480  C.3        1 SUBUNIT     -0.0755
33   H       -30.9061   43.3546   33.7924  H          1 SUBUNIT      0.0283
34   H       -32.1065   43.6349   32.4966  H          1 SUBUNIT      0.0283
35   H       -31.8706   38.8465   34.8304  H          1 SUBUNIT      0.0417
36   H       -33.1391   39.5696   35.8631  H          1 SUBUNIT      0.0417
37   H       -32.7896   36.8841   33.0101  H          1 SUBUNIT      0.1090
38   H       -34.1824   34.7626   32.9323  H          1 SUBUNIT      0.1089
39   H       -35.9807   34.3474   34.6826  H          1 SUBUNIT      0.1089
40   H       -36.3859   36.0996   36.4922  H          1 SUBUNIT      0.1089
41   H       -35.0043   38.1633   36.5484  H          1 SUBUNIT      0.1090
42   H       -32.7288   45.8050   33.5548  H          1 SUBUNIT      0.0556
43   H       -31.0048   45.7175   33.1608  H          1 SUBUNIT      0.0556
44   H       -31.5404   45.5275   34.8377  H          1 SUBUNIT      0.0556
45   H       -36.8143   38.1505   33.1532  H          1 SUBUNIT      0.0394
46   H       -37.4046   36.5567   32.5964  H          1 SUBUNIT      0.0394
47   H       -39.2858   37.9211   31.4509  H          1 SUBUNIT      0.0504
48   H       -39.3483   37.6668   33.2201  H          1 SUBUNIT      0.0504
49   H       -38.6650   39.6575   30.3218  H          1 SUBUNIT      0.0519
50   H       -37.9524   41.1452   31.0129  H          1 SUBUNIT      0.0519
51   H       -35.8993   39.6411   30.0725  H          1 SUBUNIT      0.0386
52   H       -36.8083   34.5091   30.0845  H          1 SUBUNIT      0.1190
53   H       -35.1194   32.7406   30.5749  H          1 SUBUNIT      0.1191
54   H       -31.9098   35.6529   30.0442  H          1 SUBUNIT      0.1191
55   H       -33.6745   37.4426   29.5419  H          1 SUBUNIT      0.1190
56   H       -32.4020   32.6382   31.6537  H          1 SUBUNIT      0.0582
57   H       -31.2787   33.4992   30.5897  H          1 SUBUNIT      0.0582
58   H       -32.3171   32.2234   29.9344  H          1 SUBUNIT      0.0582
@<TRIPOS>BOND
     1    1    2 1
     2    1   17 2
     3    1   21 1
     4    2    3 2
     5    3    5 1
     6    3   14 1
     7    4   12 1
     8    4   15 1
     9    5    6 1
    10    6    7 2
    11    6   11 1
    12    7    8 1
    13    8    9 2
    14    9   10 1
    15   10   11 2
    16   12   14 1
    17   13   14 2
    18   16   18 1
    19   16   22 1
    20   18   19 1
    21   19   20 1
    22   20   21 1
    23   21   22 1
    24   22   23 1
    25   23   24 1
    26   23   30 2
    27   23   31 2
    28   24   25 2
    29   24   29 1
    30   25   26 1
    31   26   27 2
    32   27   28 1
    33   27   32 1
    34   28   29 2
    35    4   33 1
    36    4   34 1
    37    5   35 1
    38    5   36 1
    39    7   37 1
    40    8   38 1
    41    9   39 1
    42   10   40 1
    43   11   41 1
    44   15   42 1
    45   15   43 1
    46   15   44 1
    47   16   45 1
    48   16   46 1
    49   18   47 1
    50   18   48 1
    51   20   49 1
    52   20   50 1
    53   21   51 1
    54   25   52 1
    55   26   53 1
    56   28   54 1
    57   29   55 1
    58   32   56 1
    59   32   57 1
    60   32   58 1
